                                  MODFLOW-NWT      
      U.S. GEOLOGICAL SURVEY MODULAR FINITE-DIFFERENCE GROUNDWATER-FLOW MODEL
                            VERSION 1.0.5 05/14/2012
                    BASED ON MODFLOW-2005 VERSION 1.9.01 05/01/2012

 LIST FILE: MODFLOW\mf_1000.lst
                         UNIT 5011

 OPENING MODFLOW\mf_1000.cbc
 FILE TYPE:DATA(BINARY)   UNIT 5009   STATUS:UNKNOWN
 FORMAT:BINARY                 ACCESS:SEQUENTIAL          

 OPENING MODFLOW\mf_1000.dis
 FILE TYPE:DIS   UNIT 5012   STATUS:OLD    
 FORMAT:FORMATTED              ACCESS:SEQUENTIAL          

 OPENING MODFLOW\mf_1000.bas
 FILE TYPE:BAS6   UNIT 5013   STATUS:OLD    
 FORMAT:FORMATTED              ACCESS:SEQUENTIAL          

 OPENING MODFLOW\mf_1000.oc
 FILE TYPE:OC   UNIT 5039   STATUS:OLD    
 FORMAT:FORMATTED              ACCESS:SEQUENTIAL          

 OPENING MODFLOW\mf_1000.fhd
 FILE TYPE:DATA   UNIT 5037   STATUS:UNKNOWN
 FORMAT:FORMATTED              ACCESS:SEQUENTIAL          

 OPENING MODFLOW\mf_1000.fdn
 FILE TYPE:DATA   UNIT 5038   STATUS:UNKNOWN
 FORMAT:FORMATTED              ACCESS:SEQUENTIAL          

 OPENING MODFLOW\mf_1000.nwt
 FILE TYPE:NWT   UNIT 5133   STATUS:OLD    
 FORMAT:FORMATTED              ACCESS:SEQUENTIAL          

 OPENING MODFLOW\mf_1000.upw
 FILE TYPE:UPW   UNIT 5134   STATUS:OLD    
 FORMAT:FORMATTED              ACCESS:SEQUENTIAL          

 OPENING MODFLOW\mf_1000.riv
 FILE TYPE:RIV   UNIT 5021   STATUS:OLD    
 FORMAT:FORMATTED              ACCESS:SEQUENTIAL          

 OPENING MODFLOW\mf_1000.rch
 FILE TYPE:RCH   UNIT 5024   STATUS:OLD    
 FORMAT:FORMATTED              ACCESS:SEQUENTIAL          
# EVT	5025	MODFLOW\mf_1000.evt                                                                                                                                                                                                                                                                              

 OPENING MODFLOW\mf_1000.zon
 FILE TYPE:ZONE   UNIT 5015   STATUS:OLD    
 FORMAT:FORMATTED              ACCESS:SEQUENTIAL          

 OPENING MODFLOW\mf_1000.pval
 FILE TYPE:PVAL   UNIT 5052   STATUS:OLD    
 FORMAT:FORMATTED              ACCESS:SEQUENTIAL          

 BAS -- BASIC PACKAGE, VERSION 7, 5/2/2005 INPUT READ FROM UNIT 5013
 
 MODFLOW was compiled using mixed precision
 Precision of REAL variables:           6
 Precision of DOUBLE PRECISION variables:          15

 DISCRETIZATION INPUT DATA READ FROM UNIT 5012
 # Discretization File created on 9/8/2020 by ModelMuse version 4.2.0.0.
 # Animas MODFLOW model steady state for linking with APEX model
 # developed by Seonggyu Park (Last modified: 08/27/2020)
 # Upper left corner: (-1076792.75079734, 1719150.01173572)
 # Lower left corner: (-1076792.75079734, 1588150.01173572)
 # Upper right corner: (-1000792.75079734, 1719150.01173572)
 # Lower right corner: (-1000792.75079734, 1588150.01173572)
 # Grid angle (in degrees counterclockwise): 0
    1 LAYERS       131 ROWS        76 COLUMNS
    1 STRESS PERIOD(S) IN SIMULATION
 MODEL TIME UNIT IS DAYS
 MODEL LENGTH UNIT IS METERS
  Confining bed flag for each layer:
   0

                     DELR =   1000.00    

                     DELC =   1000.00    



           TOP ELEVATION OF LAYER 1
 READING ON UNIT 5012 WITH FORMAT: (FREE)              

            1           2           3           4           5           6           7           8           9          10
           11          12          13          14          15          16          17          18          19          20
           21          22          23          24          25          26          27          28          29          30
           31          32          33          34          35          36          37          38          39          40
           41          42          43          44          45          46          47          48          49          50
           51          52          53          54          55          56          57          58          59          60
           61          62          63          64          65          66          67          68          69          70
           71          72          73          74          75          76
 ........................................................................................................................
   1  -3.0566E+04 -3.0010E+04 -2.8961E+04 -2.7350E+04 -2.5101E+04 -2.2133E+04 -1.8362E+04 -1.3694E+04  -8034.      -1845.    
        4237.       4655.       4942.       4868.       4802.       4747.       4704.       4671.       4647.       4632.    
        4624.       4623.       4628.       4638.       4652.       4670.       4690.       4712.       4736.       4759.    
        4782.       4803.       4822.       4838.       4850.       4857.       4859.       4854.       4842.       4822.    
        4793.       4754.       4705.       4644.       4571.       4485.       4385.       4271.       4141.       3995.    
        3831.       3650.       3457.       3655.       3915.       4052.       3997.       3848.       3643.       3419.    
        3212.       3060.       3000.       3069.       3304.       3637.       3605.       3415.       3580.       3592.    
        3647.       3689.       3856.       3776.       3880.       3832.    
   2  -2.8282E+04 -2.8295E+04 -2.7903E+04 -2.7040E+04 -2.5635E+04 -2.3609E+04 -2.0879E+04 -1.7358E+04 -1.2949E+04  -7551.    
       -1626.       4192.       4596.       4869.       4795.       4730.       4676.       4633.       4600.       4577.    
        4561.       4554.       4553.       4558.       4568.       4582.       4600.       4620.       4643.       4666.    
        4689.       4712.       4733.       4751.       4767.       4779.       4785.       4786.       4781.       4768.    
        4748.       4718.       4679.       4629.       4567.       4494.       4407.       4306.       4191.       4060.    
        3913.       3748.       3566.       3479.       3600.       3705.       3779.       3917.       3901.       3860.    
        3616.       3223.       3007.       3060.       3332.       3714.       3640.       3545.       3759.       3748.    
        3709.       3632.       3786.       3985.       3986.       3906.    
   3  -2.5441E+04 -2.5905E+04 -2.6051E+04 -2.5816E+04 -2.5132E+04 -2.3927E+04 -2.2121E+04 -1.9627E+04 -1.6354E+04 -1.2203E+04
       -7069.      -1407.       4147.       4538.       4797.       4723.       4658.       4604.       4562.       4529.    
        4506.       4491.       4484.       4483.       4488.       4498.       4513.       4530.       4551.       4573.    
        4596.       4619.       4641.       4662.       4681.       4696.       4707.       4713.       4714.       4708.    
        4695.       4674.       4643.       4603.       4553.       4491.       4416.       4329.       4227.       4111.    
        3979.       3831.       3665.       3482.       3285.       3524.       3750.       3985.       3839.       3518.    
        3235.       3096.       3152.       3275.       3317.       3813.       3751.       3645.       3874.       3738.    
        3730.       3600.       3804.       3877.       3814.       3852.    
   4  -2.2213E+04 -2.3007E+04 -2.3567E+04 -2.3836E+04 -2.3749E+04 -2.3238E+04 -2.2228E+04 -2.0637E+04 -1.8377E+04 -1.5351E+04
      -1.1458E+04  -6586.      -1188.       4102.       4479.       4724.       4650.       4586.       4533.       4491.    
        4459.       4436.       4421.       4414.       4413.       4418.       4429.       4443.       4461.       4481.    
        4503.       4526.       4549.       4571.       4592.       4610.       4625.       4636.       4641.       4642.    
        4635.       4622.       4600.       4569.       4528.       4477.       4414.       4339.       4250.       4148.    
        4031.       3898.       3734.       3611.       3426.       3709.       3704.       3931.       3812.       3462.    
        3217.       3311.       3375.       3536.       3461.       3823.       3869.       3777.       3722.       3703.    
        3575.       3525.       3494.       3755.       3875.       3734.    
   5  -1.8782E+04 -1.9782E+04 -2.0631E+04 -2.1275E+04 -2.1655E+04 -2.1707E+04 -2.1360E+04 -2.0539E+04 -1.9159E+04 -1.7129E+04
      -1.4349E+04 -1.0712E+04  -6103.      -969.2       4058.       4420.       4652.       4578.       4514.       4461.    
        4420.       4388.       4365.       4351.       4344.       4343.       4348.       4359.       4373.       4391.    
        4411.       4433.       4456.       4479.       4501.       4521.       4539.       4553.       4564.       4569.    
        4569.       4562.       4548.       4526.       4494.       4453.       4401.       4337.       4261.       4172.    
        4069.       3766.       3923.       3691.       3606.       3847.       3855.       3845.       3605.       3403.    
        3359.       3570.       3525.       3639.       3604.       3640.       3792.       3915.       3867.       3726.    
        3754.       3700.       3392.       3701.       3972.       3877.    
   6  -1.5343E+04 -1.6425E+04 -1.7434E+04 -1.8321E+04 -1.9034E+04 -1.9512E+04 -1.9691E+04 -1.9501E+04 -1.8861E+04 -1.7687E+04
      -1.5884E+04 -1.3348E+04  -9967.      -5621.      -750.3       4013.       4361.       4579.       4505.       4442.    
        4390.       4348.       4317.       4295.       4280.       4273.       4273.       4279.       4289.       4304.    
        4321.       4342.       4363.       4386.       4409.       4430.       4450.       4468.       4482.       4492.    
        4497.       4497.       4489.       4475.       4452.       4419.       4377.       4325.       4260.       4183.    
        3785.       3890.       3910.       3704.       3761.       3908.       3909.       3700.       3495.       3438.    
        3591.       3767.       3632.       3646.       3531.       3525.       3750.       3886.       3913.       3782.    
        3775.       3599.       3397.       3564.       3842.       3870.    
   7  -1.2103E+04 -1.3142E+04 -1.4181E+04 -1.5179E+04 -1.6086E+04 -1.6850E+04 -1.7413E+04 -1.7707E+04 -1.7662E+04 -1.7197E+04
      -1.6222E+04 -1.4642E+04 -1.2347E+04  -9222.      -5138.      -531.4       3968.       4303.       4507.       4433.    
        4370.       4318.       4277.       4246.       4224.       4210.       4203.       4203.       4209.       4219.    
        4234.       4252.       4272.       4294.       4316.       4339.       4360.       4380.       4397.       4411.    
        4421.       4425.       4424.       4416.       4401.       4378.       4345.       4302.       4248.       3916.    
        3938.       3876.       3912.       3811.       3873.       3931.       3800.       3542.       3366.       3512.    
        3687.       3539.       3520.       3415.       3371.       3540.       3859.       3755.       3815.       3829.    
        3796.       3693.       3333.       3518.       3876.       3939.    
   8   -9282.     -1.0151E+04 -1.1091E+04 -1.2064E+04 -1.3028E+04 -1.3936E+04 -1.4734E+04 -1.5364E+04 -1.5759E+04 -1.5848E+04
      -1.5547E+04 -1.4766E+04 -1.3403E+04 -1.1348E+04  -8477.      -4655.      -312.6       3923.       4244.       4434.    
        4361.       4298.       4247.       4206.       4175.       4154.       4140.       4133.       4133.       4139.    
        4150.       4164.       4182.       4202.       4224.       4246.       4268.       4290.       4309.       4326.    
        4340.       4349.       4353.       4352.       4343.       4328.       4303.       4270.       3851.       3579.    
        3671.       3802.       3939.       3912.       3951.       3749.       3475.       3301.       3404.       3590.    
        3779.       3550.       3277.       3319.       3325.       3542.       3811.       3810.       3625.       3562.    
        3740.       3606.       3310.       3793.       3820.       4025.    
   9   -7108.      -7684.      -8396.      -9211.     -1.0092E+04 -1.0998E+04 -1.1883E+04 -1.2694E+04 -1.3373E+04 -1.3854E+04
      -1.4062E+04 -1.3915E+04 -1.3319E+04 -1.2170E+04 -1.0350E+04  -7732.      -4173.      -93.70       3878.       4185.    
        4362.       4288.       4226.       4175.       4135.       4105.       4083.       4069.       4063.       4063.    
        4069.       4080.       4095.       4112.       4132.       4154.       4176.       4198.       4219.       4239.    
        4255.       4269.       4277.       4281.       4279.       4270.       4254.       3779.       3577.       3193.    
        3241.       3426.       3892.       3933.       3817.       3687.       3453.       3199.       3425.       3719.    
        3683.       3441.       3205.       3552.       3468.       3641.       3907.       3790.       3536.       3317.    
        3314.       3188.       3353.       3855.       4006.       3944.    
  10   -5822.      -5984.      -6341.      -6865.      -7525.      -8285.      -9106.      -9943.     -1.0743E+04 -1.1450E+04
      -1.1997E+04 -1.2310E+04 -1.2304E+04 -1.1884E+04 -1.0941E+04  -9354.      -6988.      -3690.       125.2       3833.    
        4126.       4289.       4216.       4154.       4104.       4064.       4034.       4012.       3999.       3993.    
        3994.       3999.       4010.       4025.       4043.       4063.       4084.       4106.       4128.       4149.    
        4168.       4184.       4197.       4206.       4209.       4207.       3712.       3536.       3351.       3231.    
        3179.       3312.       3611.       3797.       3784.       3730.       3516.       3174.       3458.       3661.    
        3534.       3223.       3329.       3716.       3567.       3767.       3714.       3531.       3467.       3638.    
        3476.       3078.       3519.       3879.       3948.       3777.    
  11   -5133.      -5158.      -5180.      -5285.      -5588.      -6060.      -6668.      -7374.      -8133.      -8897.    
       -9607.     -1.0199E+04 -1.0598E+04 -1.0719E+04 -1.0463E+04  -9719.      -8360.      -6243.      -3207.       344.0    
        3788.       4068.       4216.       4144.       4083.       4033.       3993.       3963.       3942.       3929.    
        3923.       3924.       3930.       3940.       3955.       3973.       3993.       4014.       4036.       4058.    
        4078.       4097.       4113.       4126.       4134.       3652.       3653.       3354.       3288.       3546.    
        3310.       3549.       3717.       3495.       3384.       3334.       3297.       3156.       3420.       3649.    
        3406.       3135.       3365.       3771.       3873.       3852.       3891.       3819.       3803.       3571.    
        3133.       3075.       3467.       3647.       3870.       3833.    
  12   -4482.      -4502.      -4519.      -4533.      -4545.      -4602.      -4850.      -5270.      -5826.      -6476.    
       -7172.      -7858.      -8471.      -8935.      -9164.      -9059.      -8505.      -7369.      -5499.      -2725.    
        562.9       3743.       4009.       4144.       4072.       4011.       3961.       3922.       3892.       3872.    
        3859.       3853.       3854.       3860.       3871.       3885.       3903.       3923.       3944.       3966.    
        3988.       4008.       4027.       4042.       3594.       3474.       3678.       3561.       3434.       3729.    
        3491.       3838.       3661.       3475.       3371.       3300.       3175.       3156.       3490.       3578.    
        3300.       3093.       3381.       3741.       3803.       3693.       3889.       3841.       3684.       3287.    
        2990.       3198.       3339.       3447.       3832.       3934.    
  13   -3865.      -3881.      -3893.      -3903.      -3909.      -3913.      -3914.      -3934.      -4127.      -4495.    
       -4999.      -5592.      -6222.      -6826.      -7329.      -7647.      -7677.      -7301.      -6381.      -4756.    
       -2242.       781.8       3698.       3950.       4071.       3999.       3939.       3890.       3851.       3822.    
        3801.       3788.       3783.       3784.       3790.       3801.       3816.       3833.       3853.       3874.    
        3896.       3917.       3938.       3538.       3216.       3362.       3517.       3808.       3659.       3930.    
        3866.       3787.       3710.       3697.       3539.       3567.       3213.       3154.       3585.       3589.    
        3232.       3044.       3283.       3672.       3619.       3548.       3735.       3531.       3313.       3021.    
        3188.       3219.       3640.       3578.       3790.       3897.    
  14   -3282.      -3294.      -3302.      -3307.      -3309.      -3308.      -3304.      -3297.      -3288.      -3281.    
       -3419.      -3734.      -4186.      -4722.      -5282.      -5795.      -6175.      -6321.      -6109.      -5397.    
       -4013.      -1759.       1001.       3653.       3891.       3999.       3927.       3867.       3818.       3780.    
        3751.       3731.       3718.       3713.       3714.       3720.       3731.       3746.       3764.       3783.    
        3804.       3826.       3485.       3212.       3118.       3274.       3503.       3844.       3907.       3846.    
        3760.       3701.       3561.       3774.       3565.       3385.       3233.       3022.       3241.       3404.    
        3373.       3034.       3177.       3474.       3240.       3270.       3305.       3129.       2988.       3271.    
        3527.       3519.       3483.       3780.       3755.       3846.    
  15   -2731.      -2740.      -2745.      -2746.      -2744.      -2739.      -2730.      -2719.      -2704.      -2687.    
       -2667.      -2644.      -2725.      -2988.      -3387.      -3864.      -4351.      -4763.      -4998.      -4933.    
       -4418.      -3271.      -1277.       1220.       3609.       3833.       3926.       3855.       3795.       3747.    
        3709.       3680.       3660.       3648.       3643.       3644.       3650.       3661.       3676.       3694.    
        3713.       3440.       3409.       3381.       3211.       3165.       3485.       3865.       3952.       3770.    
        3610.       3374.       3191.       3339.       3216.       3020.       3032.       3010.       2946.       3030.    
        3315.       3132.       2965.       3012.       2927.       2952.       3035.       3117.       3114.       3461.    
        3826.       3855.       3673.       3707.       3795.       3881.    
  16   -2212.      -2218.      -2219.      -2217.      -2212.      -2203.      -2190.      -2175.      -2156.      -2134.    
       -2109.      -2081.      -2051.      -2017.      -2046.      -2257.      -2603.      -3019.      -3425.      -3720.    
       -3779.      -3446.      -2530.      -794.1       1438.       3564.       3774.       3854.       3783.       3724.    
        3675.       3638.       3609.       3590.       3578.       3573.       3574.       3581.       3592.       3606.    
        3407.       3647.       3673.       3532.       3611.       3373.       3515.       3923.       3975.       3878.    
        3716.       3236.       3201.       3104.       3114.       3356.       3489.       3383.       3083.       2969.    
        2950.       2900.       2845.       2961.       3137.       3213.       3211.       3558.       3351.       3163.    
        3539.       3867.       3769.       3640.       3894.       3829.    
  17   -1724.      -1727.      -1726.      -1721.      -1712.      -1700.      -1684.      -1665.      -1642.      -1616.    
       -1586.      -1554.      -1519.      -1480.      -1439.      -1395.      -1382.      -1540.      -1833.      -2185.    
       -2500.      -2653.      -2484.      -1790.      -311.5       1657.       3519.       3715.       3781.       3711.    
        3652.       3604.       3567.       3539.       3519.       3507.       3503.       3504.       3511.       3395.    
        3536.       3506.       3758.       3895.       3917.       3680.       3677.       3856.       3807.       3589.    
        3338.       3285.       3580.       3474.       3428.       3629.       3630.       3264.       3384.       3308.    
        3035.       2834.       3006.       3311.       3456.       3507.       3277.       3713.       3722.       3222.    
        3493.       3828.       3804.       3672.       3872.       3829.    
  18   -1264.      -1265.      -1262.      -1255.      -1244.      -1229.      -1210.      -1187.      -1161.      -1131.    
       -1098.      -1062.      -1022.      -978.9      -933.0      -884.2      -832.5      -778.1      -733.2      -838.2    
       -1077.      -1361.      -1568.      -1537.      -1052.       171.2       1876.       3474.       3657.       3708.    
        3638.       3580.       3533.       3496.       3468.       3449.       3437.       3433.       3410.       3348.    
        3334.       3408.       3511.       3722.       3978.       3849.       3803.       3666.       3517.       3326.    
        3445.       3578.       3632.       3593.       3734.       3714.       3461.       3534.       3742.       3599.    
        3321.       2879.       3231.       3687.       3771.       3735.       3634.       3842.       3769.       3298.    
        3676.       3853.       3824.       3818.       3757.       3750.    
  19   -833.2      -832.9      -828.1      -819.0      -805.7      -788.3      -766.8      -741.5      -712.2      -679.3    
       -642.7      -602.6      -559.0      -512.1      -461.9      -408.6      -352.2      -292.9      -230.7      -165.8    
       -99.54      -150.7      -335.4      -541.6      -610.8      -317.6       653.8       2095.       3429.       3598.    
        3636.       3566.       3508.       3461.       3425.       3397.       3378.       3466.       3244.       3369.    
        3347.       3440.       3607.       3857.       3836.       3618.       3820.       3771.       3615.       3460.    
        3765.       3846.       3724.       3669.       3778.       3606.       3419.       3586.       3843.       3624.    
        3263.       2953.       3314.       3594.       3738.       3898.       3830.       3883.       3674.       3325.    
        3785.       3828.       3898.       3840.       3800.       3593.    
  20   -429.4      -428.1      -422.1      -411.6      -396.7      -377.4      -353.9      -326.2      -294.5      -258.9    
       -219.4      -176.1      -129.2      -78.67      -24.72       32.60       93.19       157.0       223.8       293.6    
        366.3       441.8       519.9       522.1       393.7       280.7       411.3       1136.       2314.       3384.    
        3539.       3563.       3494.       3437.       3390.       3354.       3318.       3331.       3488.       3319.    
        3315.       3394.       3532.       3758.       3905.       3493.       3832.       3908.       3669.       3606.    
        3877.       3633.       3570.       3562.       3642.       3673.       3519.       3731.       3820.       3671.    
        3237.       2957.       3186.       3501.       3699.       3840.       3887.       3789.       3546.       3420.    
        3776.       3851.       3731.       3786.       3808.       3751.    
  21   -51.65      -49.84      -43.18      -31.77      -15.70       4.929       30.02       59.46       93.18       131.1    
        173.0       218.9       268.7       322.3       379.6       440.4       504.8       572.5       643.5       717.7    
        795.0       875.3       958.5       1044.       1133.       1180.       1112.       1130.       1619.       2533.    
        3339.       3480.       3491.       3422.       3365.       3317.       3427.       3488.       3423.       3276.    
        3310.       3446.       3579.       3807.       3693.       3469.       3669.       3739.       3718.       3675.    
        3562.       3391.       3266.       3316.       3442.       3409.       3567.       3747.       3620.       3377.    
        3164.       2948.       3264.       3420.       3527.       3776.       3916.       3746.       3644.       3513.    
        3707.       3783.       3659.       3700.       3879.       3884.    
  22    301.0       302.8       309.7       321.6       338.3       359.8       386.0       416.7       452.0       491.6    
        535.5       583.6       635.8       692.0       752.1       816.0       883.6       954.8       1029.       1108.    
        1189.       1274.       1361.       1452.       1546.       1642.       1742.       1824.       1826.       2102.    
        2752.       3294.       3422.       3418.       3311.       3228.       3204.       3460.       3483.       3317.    
        3368.       3482.       3619.       3712.       3534.       3327.       3511.       3661.       3739.       3693.    
        3651.       3535.       3312.       3197.       3335.       3333.       3508.       3526.       3459.       3286.    
        3151.       2946.       3374.       3544.       3674.       3745.       3925.       3839.       3707.       3680.    
        3722.       3682.       3593.       3512.       3664.       3859.    
  23    629.7       631.0       637.7       649.5       666.4       688.3       715.1       746.6       782.9       823.8    
        869.2       919.0       973.1       1031.       1094.       1160.       1231.       1305.       1383.       1464.    
        1549.       1638.       1730.       1825.       1923.       2024.       2128.       2235.       2345.       2453.    
        2584.       2971.       3249.       3427.       3457.       3338.       3293.       3344.       3451.       3350.    
        3362.       3442.       3597.       3490.       3411.       3175.       3556.       3701.       3592.       3664.    
        3625.       3655.       3405.       3144.       3238.       3393.       3391.       3353.       3285.       3222.    
        3212.       2936.       3349.       3571.       3649.       3748.       3841.       3873.       3740.       3761.    
        3845.       3774.       3623.       3526.       3514.       3792.    
  24    935.4       935.8       941.7       953.0       969.6       991.4       1018.       1050.       1087.       1129.    
        1175.       1226.       1282.       1342.       1406.       1474.       1547.       1624.       1704.       1789.    
        1877.       1969.       2065.       2163.       2266.       2371.       2480.       2591.       2706.       2824.    
        2944.       3067.       3126.       3249.       3482.       3451.       3430.       3486.       3513.       3465.    
        3425.       3476.       3608.       3507.       3203.       3164.       3371.       3403.       3446.       3662.    
        3477.       3548.       3352.       3111.       3254.       3272.       3257.       3310.       3272.       3151.    
        3099.       2907.       3214.       3438.       3632.       3717.       3796.       3819.       3728.       3788.    
        3835.       3794.       3706.       3572.       3517.       3716.    
  25    1219.       1218.       1223.       1233.       1249.       1270.       1297.       1329.       1366.       1408.    
        1454.       1506.       1563.       1624.       1689.       1760.       1834.       1913.       1996.       2083.    
        2174.       2268.       2367.       2469.       2575.       2684.       2797.       2913.       3032.       3154.    
        3279.       3440.       3442.       3304.       3468.       3514.       3534.       3590.       3446.       3321.    
        3296.       3504.       3485.       3357.       3160.       3075.       3140.       3248.       3415.       3580.    
        3440.       3341.       3232.       3052.       3128.       3194.       3262.       3308.       3252.       3274.    
        3263.       2853.       3119.       3450.       3764.       3759.       3819.       3715.       3597.       3691.    
        3815.       3825.       3730.       3601.       3689.       3640.    
  26    1482.       1479.       1482.       1491.       1506.       1526.       1552.       1583.       1619.       1661.    
        1708.       1760.       1817.       1879.       1945.       2017.       2093.       2173.       2257.       2346.    
        2439.       2537.       2638.       2743.       2852.       2964.       3080.       3200.       3323.       3449.    
        3579.       3469.       3672.       3453.       3417.       3249.       3338.       3337.       3160.       3168.    
        3367.       3532.       3520.       3302.       3136.       2969.       3246.       3471.       3505.       3486.    
        3401.       3303.       3117.       3000.       3150.       3267.       3378.       3434.       3464.       3564.    
        3429.       2881.       2890.       3054.       3285.       3348.       3512.       3417.       3364.       3648.    
        3798.       3826.       3724.       3721.       3699.       3564.    
  27    1726.       1720.       1721.       1728.       1741.       1760.       1784.       1814.       1850.       1891.    
        1937.       1989.       2046.       2108.       2175.       2247.       2324.       2405.       2491.       2581.    
        2676.       2775.       2879.       2986.       3097.       3213.       3332.       3455.       3581.       3711.    
        3432.       3536.       3674.       3593.       3366.       3139.       3171.       3167.       3043.       3193.    
        3281.       3546.       3546.       3438.       3164.       2965.       3252.       3602.       3666.       3554.    
        3394.       3175.       2991.       2989.       3210.       3379.       3524.       3620.       3716.       3637.    
        3210.       2822.       2970.       3143.       3042.       3053.       3145.       3315.       3372.       3483.    
        3753.       3815.       3798.       3799.       3636.       3495.    
  28    1951.       1942.       1940.       1945.       1955.       1972.       1995.       2023.       2057.       2097.    
        2143.       2194.       2250.       2312.       2379.       2451.       2528.       2610.       2697.       2788.    
        2884.       2985.       3090.       3199.       3313.       3430.       3552.       3678.       3807.       3940.    
        3386.       3547.       3469.       3444.       3356.       3101.       3020.       2997.       2999.       3102.    
        3294.       3570.       3552.       3310.       3114.       2922.       3162.       3340.       3437.       3339.    
        3211.       3190.       2996.       3032.       3282.       3451.       3592.       3737.       3768.       3496.    
        3064.       2870.       3267.       3425.       3551.       3318.       3530.       3658.       3751.       3460.    
        3665.       3785.       3784.       3619.       3472.       3503.    
  29    2158.       2146.       2141.       2143.       2150.       2165.       2185.       2211.       2244.       2282.    
        2326.       2376.       2432.       2493.       2559.       2631.       2708.       2790.       2877.       2969.    
        3066.       3167.       3273.       3384.       3499.       3619.       3742.       3870.       4002.       3304.    
        3362.       3239.       3269.       3268.       3258.       3152.       3000.       2916.       3099.       3187.    
        3305.       3568.       3659.       3466.       3131.       2922.       2943.       3119.       3202.       3046.    
        3158.       3339.       2991.       2990.       3252.       3450.       3593.       3708.       3741.       3415.    
        2992.       2936.       3550.       3616.       3820.       3598.       3686.       3814.       3854.       3753.    
        3930.       3907.       3831.       3677.       3587.       3619.    
  30    2348.       2333.       2324.       2322.       2327.       2338.       2356.       2380.       2410.       2446.    
        2488.       2536.       2590.       2650.       2716.       2786.       2863.       2944.       3031.       3123.    
        3221.       3323.       3429.       3541.       3657.       3778.       3904.       4033.       4167.       3137.    
        2963.       3045.       3096.       3125.       3147.       3049.       2937.       2948.       3095.       3177.    
        3225.       3401.       3459.       3392.       3257.       3090.       2795.       2983.       2954.       2908.    
        3149.       3384.       2999.       3074.       3434.       3447.       3593.       3678.       3417.       3180.    
        2875.       2882.       3470.       3847.       3908.       3911.       3742.       3800.       3880.       3907.    
        3913.       3769.       3802.       3810.       3708.       3742.    
  31    2524.       2504.       2491.       2485.       2486.       2494.       2508.       2529.       2557.       2590.    
        2630.       2676.       2728.       2786.       2850.       2920.       2995.       3076.       3162.       3254.    
        3350.       3452.       3560.       3672.       3789.       3910.       4037.       4168.       3176.       2857.    
        2860.       2922.       3022.       3084.       3130.       2974.       2866.       2911.       3075.       3052.    
        3098.       3230.       3252.       3362.       3296.       3127.       2811.       2778.       2820.       2811.    
        3009.       3206.       2899.       3336.       3733.       3595.       3610.       3684.       3306.       2777.    
        2742.       2995.       3338.       3512.       3542.       3709.       3869.       3934.       3869.       3720.    
        3790.       3617.       3640.       3750.       3879.       3824.    
  32    2684.       2660.       2643.       2632.       2629.       2633.       2644.       2661.       2685.       2716.    
        2753.       2796.       2846.       2901.       2963.       3031.       3105.       3184.       3269.       3360.    
        3456.       3558.       3665.       3777.       3894.       4016.       4143.       4275.       2985.       2943.    
        2984.       3019.       3178.       3151.       3153.       3043.       2863.       2846.       2967.       2953.    
        3074.       3083.       3170.       3234.       3181.       3192.       3008.       2693.       2703.       2807.    
        2914.       2933.       2938.       3461.       3813.       3632.       3379.       3400.       2861.       2762.    
        3063.       3255.       3333.       3408.       3499.       3416.       3506.       3616.       3824.       3788.    
        3504.       3437.       3353.       3518.       3994.       3869.    
  33    2832.       2802.       2780.       2765.       2757.       2756.       2763.       2776.       2796.       2823.    
        2857.       2897.       2944.       2997.       3057.       3122.       3194.       3271.       3355.       3444.    
        3539.       3640.       3746.       3858.       3974.       4097.       4224.       3044.       3085.       3093.    
        3115.       3232.       3245.       3089.       3053.       2987.       2848.       2765.       2801.       2836.    
        2904.       2987.       3099.       3043.       3029.       3062.       3072.       2709.       2642.       2718.    
        2864.       2865.       3115.       3603.       3709.       3725.       3265.       3025.       2698.       2888.    
        3149.       3227.       3367.       3756.       3805.       3747.       3791.       3840.       3894.       3840.    
        3790.       3491.       3258.       3482.       3843.       3879.    
  34    2967.       2932.       2904.       2883.       2871.       2865.       2867.       2876.       2892.       2915.    
        2945.       2981.       3025.       3074.       3131.       3194.       3263.       3338.       3420.       3507.    
        3601.       3700.       3805.       3915.       4031.       4153.       4279.       2918.       2981.       3208.    
        3253.       3211.       3087.       3086.       2944.       2941.       2753.       2790.       2859.       2865.    
        2868.       2884.       2879.       2895.       2927.       2980.       2940.       2668.       2572.       2671.    
        2859.       2816.       3221.       3447.       3712.       3578.       3103.       2655.       2800.       3153.    
        3539.       3628.       3421.       3399.       3719.       3904.       3937.       3875.       3694.       3603.    
        3813.       3642.       3348.       3702.       3828.       3857.    
  35    3000.       3025.       3016.       2990.       2971.       2960.       2957.       2961.       2972.       2990.    
        3016.       3049.       3088.       3134.       3187.       3247.       3313.       3386.       3465.       3550.    
        3641.       3738.       3841.       3950.       4065.       4186.       4312.       3022.       3151.       3212.    
        3178.       3123.       2997.       3012.       2919.       2835.       2763.       2950.       3007.       3039.    
        3056.       3063.       3086.       3127.       3102.       3002.       2777.       2665.       2511.       2628.    
        2689.       2769.       3118.       3464.       3589.       3412.       2998.       2590.       2890.       3286.    
        3464.       3491.       3828.       3626.       3390.       3594.       3893.       3905.       3811.       3577.    
        3430.       3625.       3297.       4042.       3786.       3807.    
  36    2863.       2943.       3008.       3049.       3058.       3043.       3034.       3032.       3038.       3052.    
        3072.       3101.       3136.       3178.       3227.       3283.       3345.       3415.       3491.       3573.    
        3662.       3756.       3857.       3965.       4078.       4196.       3215.       3142.       3209.       3097.    
        3016.       3009.       3001.       2882.       2895.       2773.       2760.       2849.       2939.       3008.    
        3137.       3195.       3162.       3203.       3203.       3135.       2773.       2747.       2591.       2883.    
        2978.       3046.       3127.       3077.       3096.       3047.       2655.       2642.       2967.       3430.    
        3745.       3870.       3680.       3810.       3626.       3657.       3823.       3719.       3694.       3578.    
        3517.       3672.       3185.       3890.       3719.       3732.    
  37    2668.       2759.       2850.       2936.       3010.       3066.       3094.       3091.       3092.       3100.    
        3115.       3138.       3168.       3206.       3251.       3302.       3361.       3427.       3499.       3578.    
        3664.       3756.       3854.       3959.       4069.       4186.       3139.       3246.       3209.       3030.    
        2922.       2907.       2892.       2833.       2781.       2721.       2813.       2943.       3019.       3068.    
        3164.       3156.       3128.       3124.       3168.       2955.       2711.       2760.       2605.       2876.    
        3003.       2821.       2578.       2570.       2609.       2618.       2608.       2705.       2990.       3362.    
        3630.       3817.       3865.       3994.       3885.       3947.       3816.       3633.       3395.       3213.    
        3456.       3577.       3192.       3631.       3629.       3633.    
  38    2530.       2595.       2669.       2752.       2840.       2928.       3010.       3078.       3123.       3135.    
        3145.       3163.       3188.       3220.       3260.       3307.       3361.       3423.       3491.       3566.    
        3648.       3737.       3832.       3934.       4042.       3099.       3134.       3237.       3217.       3107.    
        3019.       2959.       2816.       2814.       2756.       2731.       2883.       2948.       2945.       2997.    
        3115.       3235.       3188.       3106.       2976.       2730.       2694.       2764.       2657.       2546.    
        2568.       2477.       2698.       2777.       2804.       2839.       3038.       3086.       2903.       3126.    
        3475.       3606.       3899.       3963.       3791.       4052.       3965.       3832.       3715.       2956.    
        3214.       3348.       3529.       3533.       3521.       3515.    
  39    2443.       2502.       2564.       2627.       2691.       2760.       2839.       2924.       3009.       3085.    
        3145.       3175.       3194.       3221.       3255.       3297.       3347.       3403.       3467.       3538.    
        3616.       3701.       3792.       3891.       3996.       3101.       3184.       3284.       3205.       3000.    
        2972.       2946.       2847.       2730.       2673.       2794.       2844.       2883.       3002.       3108.    
        3206.       3194.       3186.       3198.       2936.       2684.       2637.       2637.       2613.       2436.    
        2626.       2831.       3122.       3287.       3415.       3358.       3470.       3443.       3267.       3063.    
        3321.       3620.       3699.       3501.       3596.       3993.       3840.       3880.       3761.       2806.    
        3049.       3101.       3939.       3419.       3397.       3380.    
  40    2369.       2424.       2481.       2539.       2599.       2660.       2723.       2787.       2854.       2928.    
        3009.       3091.       3162.       3209.       3238.       3275.       3319.       3370.       3429.       3495.    
        3568.       3649.       3736.       3831.       2993.       3027.       3123.       3263.       3152.       2988.    
        2877.       2877.       2830.       2719.       2647.       2740.       2839.       2983.       3072.       3068.    
        3172.       3174.       3123.       3174.       2903.       2652.       2582.       2575.       2474.       2619.    
        2967.       3090.       3208.       3366.       3497.       3612.       3747.       3660.       3514.       3370.    
        3266.       3319.       3373.       3528.       3728.       3863.       3879.       3542.       3820.       2759.    
        3035.       2884.       3440.       3293.       3259.       3232.    
  41    2306.       2357.       2410.       2464.       2519.       2576.       2635.       2694.       2756.       2818.    
        2883.       2949.       3019.       3097.       3174.       3237.       3278.       3324.       3377.       3438.    
        3507.       3582.       3665.       3755.       3180.       3129.       3165.       3280.       3105.       2920.    
        2948.       2857.       2804.       2674.       2693.       2850.       2940.       3003.       2992.       2974.    
        3100.       3132.       3102.       3149.       2852.       2618.       2544.       2567.       2515.       2536.    
        2940.       3202.       3338.       3357.       3463.       3596.       3698.       3776.       3614.       3596.    
        3676.       3750.       3730.       3848.       3784.       3678.       3873.       3552.       3302.       2812.    
        2976.       2908.       3210.       3157.       3111.       3072.    
  42    2253.       2301.       2350.       2400.       2452.       2505.       2559.       2614.       2671.       2730.    
        2789.       2851.       2914.       2978.       3044.       3112.       3186.       3259.       3313.       3369.    
        3431.       3502.       3580.       3215.       3164.       3327.       3300.       3237.       3097.       3028.    
        2905.       2824.       2752.       2678.       2690.       2768.       2892.       2893.       2899.       2942.    
        3032.       3028.       3041.       3108.       2750.       2583.       2554.       2586.       2360.       2589.    
        3046.       3244.       3375.       3434.       3537.       3567.       3666.       3784.       3746.       3701.    
        3714.       3762.       3764.       3769.       3825.       3573.       3565.       3605.       3247.       2962.    
        2942.       3411.       3081.       3015.       2957.       2905.    
  43    2209.       2254.       2299.       2346.       2394.       2444.       2494.       2546.       2599.       2653.    
        2709.       2766.       2824.       2884.       2945.       3008.       3073.       3139.       3207.       3277.    
        3344.       3409.       3481.       3345.       3215.       3369.       3416.       3335.       3302.       3098.    
        2984.       2899.       2790.       2661.       2593.       2830.       2884.       2788.       2855.       2990.    
        2967.       2975.       3073.       3024.       2628.       2553.       2555.       2619.       2391.       2596.    
        2885.       3057.       3183.       3366.       3463.       3538.       3640.       3673.       3743.       3654.    
        3600.       3680.       3620.       3771.       3849.       3822.       3511.       3270.       3164.       3174.    
        2980.       3605.       2950.       2870.       2797.       2732.    
  44    2173.       2214.       2257.       2301.       2346.       2392.       2439.       2487.       2537.       2587.    
        2639.       2692.       2747.       2803.       2860.       2918.       2978.       3040.       3103.       3167.    
        3233.       3301.       3370.       3444.       3353.       3384.       3448.       3327.       3171.       3112.    
        2959.       2914.       2765.       2678.       2550.       2752.       2718.       2835.       2914.       2985.    
        2887.       2976.       3047.       3029.       2591.       2518.       2566.       2619.       2384.       2574.    
        3041.       3205.       3272.       3364.       3468.       3543.       3519.       3621.       3646.       3660.    
        3507.       3624.       3553.       3715.       3717.       3790.       3648.       3489.       3653.       3359.    
        3114.       3291.       2818.       2724.       2637.       2557.    
  45    2143.       2182.       2222.       2263.       2305.       2348.       2392.       2437.       2484.       2531.    
        2579.       2629.       2680.       2732.       2785.       2840.       2896.       2953.       3012.       3072.    
        3133.       3196.       3206.       3363.       3438.       3415.       3358.       3096.       2954.       2974.    
        2977.       2906.       2872.       2770.       2511.       2634.       2777.       2873.       2894.       2997.    
        2843.       2862.       2960.       2990.       2616.       2489.       2536.       2560.       2377.       2739.    
        3022.       3170.       3295.       3438.       3397.       3388.       3488.       3608.       3562.       3598.    
        3439.       3583.       3505.       3630.       3627.       3684.       3707.       3827.       3717.       3483.    
        3262.       2807.       2690.       2580.       2478.       2384.    
  46    2119.       2155.       2193.       2232.       2271.       2311.       2353.       2395.       2438.       2483.    
        2528.       2575.       2622.       2671.       2721.       2772.       2824.       2878.       2933.       2989.    
        3046.       3105.       3203.       3273.       3409.       3495.       3319.       3113.       2889.       2801.    
        2865.       2857.       2796.       2784.       2494.       2599.       2749.       2797.       2895.       2890.    
        2793.       2911.       3032.       2986.       2604.       2493.       2489.       2463.       2400.       2864.    
        2987.       3094.       3236.       3322.       3214.       3282.       3500.       3569.       3473.       3484.    
        3397.       3581.       3466.       3550.       3565.       3589.       3776.       3860.       3559.       3456.    
        3139.       2700.       2567.       2442.       2324.       2214.    
  47    2100.       2134.       2170.       2206.       2243.       2281.       2320.       2359.       2400.       2442.    
        2484.       2528.       2573.       2619.       2665.       2713.       2762.       2812.       2864.       2916.    
        2970.       3025.       2902.       3120.       3312.       3543.       3361.       3066.       2888.       2794.    
        2698.       2649.       2603.       2597.       2500.       2432.       2561.       2718.       2832.       2680.    
        2724.       2901.       2989.       2922.       2517.       2449.       2419.       2399.       2388.       2700.    
        2888.       3065.       3132.       3175.       3123.       3283.       3461.       3516.       3396.       3359.    
        3523.       3553.       3360.       3344.       3427.       3608.       3736.       3845.       3537.       3266.    
        3076.       2604.       2454.       2312.       2177.       2051.    
  48    2085.       2118.       2151.       2185.       2220.       2256.       2292.       2329.       2368.       2407.    
        2447.       2488.       2530.       2573.       2617.       2662.       2708.       2755.       2803.       2853.    
        2903.       2988.       3053.       3071.       3400.       3533.       3334.       3145.       2934.       2835.    
        2696.       2669.       2670.       2595.       2615.       2569.       2411.       2608.       2636.       2590.    
        2806.       2868.       2964.       2827.       2438.       2391.       2381.       2323.       2488.       2666.    
        2787.       2892.       2976.       3007.       3175.       3314.       3451.       3384.       3289.       3425.    
        3549.       3423.       3282.       3435.       3629.       3632.       3706.       3613.       3389.       3022.    
        2777.       2520.       2353.       2193.       2041.       1897.    
  49    2075.       2105.       2136.       2168.       2201.       2235.       2269.       2305.       2341.       2378.    
        2415.       2454.       2494.       2534.       2576.       2618.       2661.       2706.       2751.       2797.    
        2845.       3015.       3184.       3075.       3361.       3568.       3374.       3243.       3038.       2899.    
        2703.       2839.       2725.       2746.       2790.       2622.       2432.       2416.       2456.       2557.    
        2796.       2879.       2946.       2834.       2433.       2317.       2309.       2306.       2481.       2760.    
        2947.       2964.       3057.       3116.       3227.       3424.       3406.       3244.       3244.       3283.    
        3283.       3307.       3534.       3658.       3587.       3433.       3548.       3273.       3205.       2846.    
        2647.       2452.       2266.       2088.       1918.       1757.    
  50    2067.       2096.       2125.       2156.       2187.       2218.       2251.       2284.       2318.       2353.    
        2389.       2425.       2463.       2501.       2540.       2580.       2621.       2662.       2705.       2749.    
        2793.       3025.       3427.       3134.       3419.       3491.       3186.       3011.       2890.       2814.    
        2855.       2885.       2822.       2792.       2733.       2672.       2643.       2406.       2347.       2581.    
        2708.       2877.       2890.       2764.       2369.       2265.       2255.       2331.       2518.       2758.    
        2948.       3115.       3210.       3296.       3405.       3440.       3303.       3140.       3046.       3061.    
        3306.       3489.       3605.       3704.       3569.       3440.       3209.       3205.       2959.       2877.    
        2606.       2410.       2211.       2008.       1812.       1632.    
  51    2062.       2090.       2117.       2146.       2175.       2205.       2236.       2267.       2300.       2332.    
        2366.       2401.       2436.       2472.       2509.       2547.       2585.       2625.       2665.       2706.    
        2749.       2954.       3368.       3200.       3499.       3558.       3383.       3196.       3151.       2995.    
        3007.       2978.       2797.       2699.       2619.       2560.       2524.       2531.       2375.       2404.    
        2593.       2726.       2817.       2667.       2298.       2228.       2242.       2350.       2552.       2749.    
        2881.       2980.       3136.       3295.       3411.       3310.       3157.       3011.       2926.       3315.    
        3487.       3554.       3638.       3659.       3470.       3363.       3277.       3136.       2917.       2730.    
        2564.       2372.       2176.       1978.       1777.       1573.    
  52    2060.       2086.       2112.       2139.       2167.       2195.       2224.       2254.       2284.       2315.    
        2347.       2380.       2413.       2448.       2483.       2518.       2555.       2592.       2630.       2669.    
        2803.       2974.       3353.       3362.       3585.       3521.       3500.       3404.       3414.       3255.    
        3064.       2890.       2814.       2810.       2725.       2650.       2713.       2617.       2492.       2307.    
        2452.       2605.       2781.       2559.       2291.       2180.       2215.       2336.       2535.       2758.    
        2909.       3018.       3146.       3326.       3374.       3196.       2985.       2832.       3152.       3297.    
        3423.       3534.       3643.       3539.       3440.       3157.       3210.       2918.       2966.       2705.    
        2520.       2332.       2141.       1947.       1749.       1549.    
  53    2060.       2084.       2109.       2135.       2161.       2188.       2215.       2243.       2272.       2302.    
        2332.       2363.       2394.       2427.       2460.       2494.       2528.       2564.       2600.       2637.    
        2876.       2934.       3487.       3650.       3489.       3301.       3477.       3591.       3398.       3133.    
        3073.       3047.       3025.       2875.       2802.       2801.       2806.       2728.       2542.       2318.    
        2369.       2583.       2759.       2622.       2319.       2125.       2129.       2305.       2510.       2721.    
        2953.       3161.       3260.       3302.       3236.       3021.       2807.       2800.       3194.       3333.    
        3435.       3560.       3579.       3535.       3323.       3174.       2936.       2914.       2754.       2657.    
        2476.       2291.       2104.       1914.       1720.       1524.    
  54    2061.       2084.       2108.       2132.       2157.       2182.       2208.       2235.       2262.       2290.    
        2319.       2348.       2378.       2409.       2440.       2472.       2505.       2539.       2573.       2608.    
        2923.       3264.       3363.       3393.       3201.       3433.       3558.       3392.       3135.       3065.    
        2959.       3125.       3162.       3045.       2934.       2863.       2775.       2714.       2626.       2379.    
        2299.       2540.       2681.       2574.       2274.       2076.       2146.       2341.       2529.       2732.    
        3072.       3154.       3214.       3219.       3041.       2793.       2675.       2890.       3186.       3315.    
        3453.       3515.       3325.       3368.       3137.       3089.       2850.       2869.       2782.       2607.    
        2430.       2250.       2066.       1880.       1690.       1498.    
  55    2065.       2086.       2108.       2131.       2155.       2179.       2203.       2229.       2255.       2281.    
        2308.       2336.       2365.       2394.       2424.       2454.       2485.       2517.       2550.       2607.    
        2956.       3139.       3231.       3090.       3282.       3597.       3653.       3299.       2960.       2903.    
        2875.       3091.       3191.       3070.       2869.       2761.       2681.       2600.       2527.       2501.    
        2231.       2408.       2668.       2515.       2208.       2052.       2138.       2356.       2557.       2834.    
        2966.       3049.       3200.       3107.       2935.       2648.       2662.       2914.       3121.       3286.    
        3472.       3458.       3308.       3078.       2945.       2821.       2904.       2737.       2728.       2557.    
        2383.       2207.       2027.       1845.       1659.       1471.    
  56    2069.       2089.       2110.       2132.       2154.       2177.       2200.       2224.       2249.       2274.    
        2300.       2326.       2353.       2381.       2409.       2438.       2468.       2498.       2529.       2707.    
        2975.       3193.       3122.       3016.       3171.       3386.       3564.       3201.       3008.       2765.    
        2902.       3057.       3129.       3103.       2955.       2742.       2632.       2535.       2471.       2381.    
        2206.       2360.       2594.       2306.       2084.       2041.       2103.       2373.       2690.       2777.    
        2848.       3010.       3159.       3115.       2810.       2566.       2690.       2927.       3128.       3384.    
        3404.       3494.       3424.       3237.       2996.       2861.       2851.       2791.       2673.       2506.    
        2336.       2163.       1988.       1809.       1627.       1443.    
  57    2074.       2094.       2114.       2134.       2155.       2177.       2199.       2221.       2245.       2269.    
        2293.       2318.       2344.       2370.       2397.       2425.       2453.       2482.       2511.       2781.    
        2889.       2917.       2935.       3152.       3273.       3358.       3416.       3235.       2973.       2733.    
        2819.       2908.       3013.       2986.       3144.       2902.       2687.       2605.       2585.       2477.    
        2191.       2185.       2285.       2086.       2033.       2037.       2169.       2385.       2554.       2626.    
        2781.       2978.       3133.       3076.       2819.       2537.       2701.       2969.       3154.       3282.    
        3243.       3382.       3456.       3204.       2887.       2878.       2689.       2779.       2618.       2455.    
        2288.       2119.       1947.       1772.       1594.       1413.    
  58    2081.       2099.       2118.       2137.       2157.       2177.       2198.       2220.       2242.       2265.    
        2288.       2312.       2336.       2361.       2387.       2413.       2440.       2467.       2496.       2824.    
        2771.       2872.       3168.       3185.       3448.       3151.       3058.       3340.       3162.       2895.    
        2663.       2787.       2848.       2894.       3031.       2920.       2820.       2624.       2490.       2405.    
        2195.       2048.       2034.       2021.       2026.       2146.       2425.       2540.       2737.       2798.    
        2874.       3007.       3124.       3063.       2818.       2545.       2674.       2913.       3071.       3078.    
        3129.       3181.       3236.       3059.       2904.       2777.       2739.       2719.       2562.       2403.    
        2240.       2074.       1906.       1735.       1561.       1384.    
  59    2088.       2105.       2123.       2141.       2160.       2179.       2199.       2219.       2240.       2262.    
        2284.       2306.       2330.       2354.       2378.       2403.       2428.       2455.       2552.       2843.    
        2861.       3109.       3396.       3457.       3601.       3288.       2896.       3244.       3205.       2977.    
        2720.       2604.       2688.       2831.       2995.       2811.       2863.       2713.       2559.       2345.    
        2119.       2018.       2013.       2022.       2146.       2445.       2649.       2696.       2769.       2976.    
        2993.       3100.       3069.       2930.       2828.       2590.       2579.       2841.       2862.       2886.    
        2931.       2895.       2966.       2889.       2839.       2621.       2810.       2660.       2507.       2350.    
        2191.       2029.       1865.       1697.       1526.       1353.    
  60    2095.       2111.       2128.       2145.       2163.       2181.       2200.       2219.       2239.       2260.    
        2281.       2302.       2324.       2347.       2370.       2394.       2418.       2443.       2645.       2839.    
        2890.       3084.       3402.       3537.       3403.       3199.       2815.       2967.       2939.       2963.    
        2780.       2563.       2655.       2872.       3009.       2730.       2830.       2609.       2427.       2265.    
        2058.       2008.       2009.       2060.       2292.       2405.       2597.       2743.       2840.       2999.    
        3115.       3088.       3017.       2915.       2784.       2630.       2505.       2676.       2746.       2851.    
        2768.       2745.       2871.       2881.       2662.       2659.       2747.       2600.       2450.       2298.    
        2142.       1984.       1823.       1659.       1492.       1322.    
  61    2103.       2119.       2134.       2150.       2167.       2184.       2202.       2220.       2239.       2259.    
        2279.       2299.       2320.       2342.       2364.       2386.       2409.       2433.       2698.       2808.    
        3048.       3247.       3428.       3278.       3183.       2940.       2772.       2757.       2822.       2910.    
        2787.       2544.       2559.       2799.       2931.       2736.       2639.       2563.       2310.       2184.    
        2019.       2003.       2087.       2306.       2568.       2545.       2557.       2666.       2789.       2923.    
        3054.       2936.       2942.       3006.       2960.       2772.       2508.       2613.       2775.       2816.    
        2691.       2674.       2735.       2740.       2539.       2766.       2684.       2541.       2394.       2245.    
        2093.       1938.       1781.       1620.       1457.       1291.    
  62    2112.       2126.       2141.       2156.       2172.       2188.       2205.       2222.       2240.       2258.    
        2277.       2296.       2316.       2337.       2358.       2379.       2402.       2435.       2713.       2744.    
        2992.       3141.       3154.       3109.       2987.       2763.       2741.       2666.       2685.       2756.    
        2707.       2563.       2459.       2667.       2838.       2861.       2676.       2525.       2255.       2117.    
        1999.       2063.       2367.       2433.       2566.       2669.       2799.       2802.       2881.       2905.    
        2940.       2862.       2832.       2908.       2843.       2760.       2504.       2603.       2708.       2815.    
        2689.       2556.       2617.       2533.       2566.       2759.       2622.       2481.       2338.       2192.    
        2044.       1893.       1738.       1581.       1422.       1259.    
  63    2120.       2134.       2147.       2162.       2177.       2192.       2208.       2224.       2241.       2258.    
        2276.       2294.       2313.       2333.       2353.       2373.       2394.       2523.       2692.       2650.    
        2722.       2835.       2913.       3127.       2932.       2788.       2647.       2620.       2649.       2750.    
        2736.       2690.       2443.       2591.       2701.       2767.       2774.       2475.       2218.       2073.    
        2003.       2232.       2424.       2556.       2642.       2863.       2913.       2934.       2801.       2840.    
        2833.       2789.       2734.       2852.       2699.       2711.       2533.       2627.       2783.       2781.    
        2623.       2508.       2541.       2450.       2676.       2693.       2559.       2422.       2282.       2140.    
        1995.       1847.       1696.       1543.       1386.       1227.    
  64    2129.       2142.       2154.       2168.       2182.       2196.       2211.       2226.       2242.       2259.    
        2276.       2293.       2311.       2329.       2348.       2368.       2388.       2588.       2626.       2636.    
        2621.       2676.       2922.       3073.       2884.       2818.       2766.       2559.       2531.       2570.    
        2552.       2512.       2417.       2439.       2554.       2590.       2658.       2531.       2193.       2046.    
        2031.       2326.       2495.       2676.       2753.       2857.       2769.       2795.       2693.       2761.    
        2793.       2684.       2638.       2673.       2644.       2698.       2492.       2731.       2911.       2846.    
        2636.       2471.       2419.       2467.       2756.       2628.       2497.       2363.       2227.       2088.    
        1946.       1801.       1654.       1504.       1351.       1195.    
  65    2138.       2150.       2161.       2174.       2187.       2200.       2214.       2229.       2244.       2259.    
        2275.       2292.       2309.       2326.       2344.       2363.       2382.       2608.       2502.       2672.    
        2611.       2611.       2749.       2805.       2713.       2638.       2579.       2475.       2402.       2442.    
        2414.       2383.       2333.       2371.       2433.       2480.       2538.       2319.       2144.       2005.    
        2107.       2457.       2575.       2692.       2899.       2918.       2758.       2661.       2612.       2627.    
        2762.       2649.       2524.       2598.       2544.       2534.       2544.       2739.       2762.       2786.    
        2565.       2501.       2359.       2560.       2688.       2563.       2435.       2305.       2172.       2036.    
        1897.       1756.       1612.       1465.       1316.       1164.    
  66    2147.       2158.       2169.       2180.       2192.       2205.       2218.       2232.       2246.       2260.    
        2275.       2291.       2307.       2323.       2341.       2358.       2420.       2581.       2330.       2624.    
        2601.       2585.       2652.       2624.       2570.       2474.       2378.       2350.       2359.       2335.    
        2355.       2299.       2299.       2239.       2278.       2361.       2384.       2312.       2126.       1998.    
        2179.       2477.       2712.       2807.       2761.       2801.       2809.       2723.       2572.       2499.    
        2643.       2644.       2494.       2453.       2433.       2428.       2573.       2618.       2603.       2661.    
        2507.       2456.       2368.       2659.       2621.       2499.       2374.       2247.       2117.       1985.    
        1849.       1711.       1571.       1427.       1281.       1132.    
  67    2156.       2166.       2176.       2187.       2198.       2210.       2222.       2234.       2248.       2261.    
        2275.       2290.       2305.       2321.       2337.       2354.       2491.       2502.       2738.       2578.    
        2577.       2554.       2587.       2695.       2640.       2464.       2346.       2288.       2308.       2348.    
        2293.       2274.       2320.       2308.       2201.       2183.       2176.       2195.       2110.       1997.    
        2168.       2593.       2717.       2696.       2642.       2662.       2660.       2584.       2535.       2425.    
        2460.       2396.       2371.       2366.       2403.       2457.       2428.       2440.       2475.       2493.    
        2433.       2291.       2441.       2670.       2554.       2436.       2314.       2190.       2063.       1934.    
        1802.       1667.       1530.       1390.       1247.       1101.    
  68    2164.       2173.       2183.       2193.       2203.       2214.       2225.       2237.       2250.       2262.    
        2276.       2289.       2304.       2319.       2334.       2350.       2521.       2355.       2792.       2553.    
        2560.       2533.       2585.       2738.       2667.       2556.       2359.       2258.       2281.       2473.    
        2284.       2253.       2367.       2290.       2237.       2118.       2272.       2426.       2258.       1999.    
        2152.       2535.       2564.       2561.       2521.       2507.       2475.       2409.       2363.       2336.    
        2321.       2357.       2365.       2464.       2556.       2621.       2498.       2348.       2361.       2443.    
        2382.       2278.       2559.       2602.       2489.       2373.       2255.       2134.       2010.       1884.    
        1755.       1624.       1489.       1352.       1213.       1070.    
  69    2173.       2181.       2190.       2199.       2209.       2219.       2229.       2240.       2252.       2263.    
        2276.       2289.       2302.       2316.       2331.       2349.       2499.       2168.       2498.       2527.    
        2636.       2527.       2552.       2655.       2642.       2589.       2498.       2349.       2244.       2403.    
        2347.       2273.       2525.       2269.       2191.       2123.       2262.       2337.       2222.       1998.    
        2113.       2382.       2391.       2398.       2386.       2360.       2305.       2272.       2278.       2283.    
        2324.       2445.       2469.       2484.       2414.       2408.       2505.       2392.       2268.       2333.    
        2390.       2327.       2642.       2535.       2425.       2312.       2197.       2079.       1958.       1835.    
        1709.       1581.       1450.       1316.       1179.       1040.    
  70    2182.       2189.       2197.       2205.       2214.       2223.       2233.       2243.       2253.       2265.    
        2276.       2288.       2301.       2314.       2327.       2408.       2421.       2796.       2501.       2501.    
        2614.       2595.       2495.       2527.       2515.       2472.       2454.       2419.       2307.       2235.    
        2269.       2257.       2468.       2271.       2165.       2108.       2121.       2102.       2006.       1998.    
        2067.       2216.       2236.       2271.       2274.       2253.       2244.       2347.       2450.       2436.    
        2508.       2596.       2578.       2548.       2489.       2397.       2312.       2363.       2297.       2326.    
        2226.       2427.       2573.       2469.       2362.       2252.       2140.       2025.       1907.       1787.    
        1664.       1539.       1411.       1280.       1147.       1011.    
  71    2190.       2196.       2203.       2211.       2219.       2227.       2236.       2245.       2255.       2265.    
        2276.       2287.       2299.       2311.       2324.       2446.       2274.       2887.       2468.       2474.    
        2499.       2510.       2462.       2484.       2409.       2399.       2371.       2342.       2313.       2306.    
        2221.       2224.       2406.       2299.       2189.       2084.       2028.       2004.       2012.       2047.    
        2120.       2219.       2253.       2279.       2217.       2234.       2377.       2444.       2456.       2454.    
        2433.       2474.       2441.       2400.       2373.       2377.       2389.       2274.       2286.       2328.    
        2232.       2507.       2506.       2404.       2300.       2193.       2084.       1972.       1857.       1740.    
        1620.       1498.       1373.       1245.       1115.       982.3    
  72    2198.       2204.       2210.       2216.       2224.       2231.       2239.       2248.       2257.       2266.    
        2276.       2287.       2297.       2309.       2321.       2435.       2089.       2405.       2442.       2448.    
        2442.       2455.       2440.       2469.       2424.       2334.       2325.       2280.       2253.       2204.    
        2202.       2156.       2283.       2238.       2133.       2063.       2003.       2034.       2089.       2135.    
        2279.       2302.       2234.       2206.       2232.       2304.       2345.       2349.       2333.       2336.    
        2375.       2414.       2419.       2411.       2386.       2357.       2353.       2207.       2289.       2243.    
        2302.       2537.       2440.       2341.       2240.       2136.       2029.       1920.       1809.       1695.    
        1578.       1458.       1336.       1212.       1084.       954.6    
  73    2206.       2210.       2216.       2222.       2228.       2235.       2242.       2250.       2258.       2267.    
        2276.       2286.       2296.       2306.       2341.       2365.       2801.       2441.       2417.       2422.    
        2425.       2425.       2417.       2452.       2413.       2329.       2272.       2243.       2209.       2279.    
        2269.       2118.       2153.       2126.       2075.       2020.       2021.       2081.       2147.       2235.    
        2282.       2335.       2248.       2170.       2273.       2366.       2377.       2322.       2286.       2314.    
        2336.       2362.       2359.       2383.       2398.       2422.       2313.       2239.       2291.       2183.    
        2407.       2470.       2376.       2280.       2181.       2080.       1977.       1870.       1762.       1650.    
        1536.       1420.       1301.       1179.       1055.       928.1    
  74    2213.       2217.       2222.       2227.       2232.       2238.       2245.       2252.       2259.       2267.    
        2275.       2284.       2294.       2303.       2383.       2230.       2958.       2385.       2391.       2397.    
        2398.       2399.       2399.       2429.       2397.       2314.       2266.       2236.       2231.       2285.    
        2282.       2234.       2105.       2107.       2073.       1997.       2023.       2134.       2177.       2282.    
        2329.       2280.       2219.       2163.       2252.       2276.       2276.       2245.       2251.       2268.    
        2282.       2306.       2332.       2355.       2346.       2395.       2259.       2279.       2215.       2199.    
        2493.       2405.       2314.       2221.       2125.       2026.       1925.       1822.       1716.       1607.    
        1496.       1383.       1267.       1148.       1027.       902.7    
  75    2220.       2223.       2227.       2232.       2236.       2242.       2247.       2253.       2260.       2267.    
        2275.       2283.       2291.       2300.       2382.       2053.       2340.       2361.       2367.       2373.    
        2372.       2366.       2387.       2405.       2376.       2293.       2258.       2239.       2254.       2268.    
        2247.       2177.       2262.       2287.       2222.       2085.       2039.       2109.       2181.       2299.    
        2242.       2203.       2192.       2161.       2168.       2212.       2212.       2194.       2221.       2226.    
        2254.       2268.       2294.       2347.       2311.       2358.       2212.       2263.       2153.       2280.    
        2428.       2342.       2254.       2163.       2070.       1974.       1876.       1775.       1672.       1566.    
        1458.       1347.       1234.       1118.       999.6       878.6    
  76    2227.       2229.       2233.       2236.       2240.       2245.       2249.       2255.       2261.       2267.    
        2274.       2281.       2289.       2297.       2325.       2748.       2394.       2336.       2343.       2350.    
        2334.       2350.       2378.       2382.       2337.       2265.       2231.       2230.       2235.       2217.    
        2185.       2218.       2225.       2175.       2118.       2038.       2026.       2125.       2227.       2226.    
        2168.       2164.       2182.       2163.       2131.       2157.       2159.       2172.       2202.       2224.    
        2227.       2279.       2269.       2298.       2278.       2321.       2174.       2252.       2150.       2367.    
        2364.       2281.       2195.       2107.       2017.       1924.       1828.       1730.       1630.       1527.    
        1421.       1313.       1203.       1090.       974.1       856.0    
  77    2233.       2235.       2237.       2240.       2243.       2247.       2251.       2256.       2261.       2267.    
        2273.       2279.       2286.       2328.       2205.       3006.       2317.       2313.       2320.       2329.    
        2328.       2345.       2355.       2360.       2292.       2242.       2215.       2199.       2185.       2176.    
        2174.       2168.       2130.       2137.       2124.       2031.       1983.       2099.       2153.       2145.    
        2114.       2124.       2165.       2152.       2125.       2118.       2136.       2148.       2166.       2210.    
        2200.       2267.       2221.       2241.       2260.       2284.       2217.       2145.       2172.       2381.    
        2303.       2222.       2139.       2054.       1966.       1875.       1782.       1687.       1589.       1489.    
        1386.       1281.       1173.       1063.       950.2       834.9    
  78    2239.       2240.       2242.       2244.       2246.       2249.       2253.       2257.       2261.       2266.    
        2271.       2277.       2283.       2336.       2040.       2297.       2280.       2290.       2299.       2309.    
        2318.       2325.       2331.       2335.       2268.       2219.       2186.       2167.       2135.       2116.    
        2101.       2082.       2074.       2160.       2259.       2127.       1984.       2065.       2100.       2090.    
        2075.       2108.       2147.       2140.       2130.       2098.       2109.       2125.       2134.       2185.    
        2190.       2209.       2230.       2250.       2244.       2248.       2217.       2145.       2249.       2320.    
        2244.       2166.       2086.       2003.       1917.       1829.       1739.       1646.       1551.       1453.    
        1353.       1251.       1146.       1038.       928.0       815.5    
  79    2245.       2245.       2246.       2247.       2249.       2251.       2254.       2257.       2261.       2265.    
        2269.       2274.       2279.       2293.       2640.       2358.       2258.       2269.       2279.       2291.    
        2297.       2304.       2309.       2299.       2226.       2198.       2188.       2200.       2177.       2137.    
        2112.       2086.       2057.       2088.       2163.       2155.       1982.       2030.       2058.       2055.    
        2067.       2104.       2131.       2130.       2122.       2096.       2083.       2103.       2135.       2175.    
        2173.       2156.       2202.       2232.       2218.       2211.       2167.       2119.       2333.       2262.    
        2188.       2112.       2034.       1954.       1871.       1785.       1698.       1607.       1515.       1420.    
        1322.       1222.       1120.       1015.       907.7       797.9    
  80    2250.       2250.       2250.       2250.       2251.       2253.       2255.       2257.       2260.       2263.    
        2267.       2271.       2285.       2189.       3032.       2268.       2236.       2248.       2261.       2274.    
        2279.       2284.       2287.       2277.       2247.       2245.       2274.       2346.       2374.       2320.    
        2297.       2239.       2195.       2186.       2073.       2067.       2030.       1975.       2052.       2095.    
        2100.       2108.       2118.       2119.       2113.       2098.       2063.       2081.       2123.       2148.    
        2171.       2154.       2165.       2207.       2179.       2174.       2121.       2146.       2274.       2206.    
        2135.       2061.       1985.       1907.       1827.       1744.       1659.       1571.       1481.       1388.    
        1294.       1196.       1096.       994.1       889.4       782.2    
  81    2255.       2254.       2253.       2253.       2253.       2254.       2255.       2257.       2259.       2261.    
        2264.       2267.       2297.       2039.       2273.       2201.       2216.       2230.       2244.       2250.    
        2269.       2260.       2267.       2259.       2297.       2354.       2354.       2330.       2367.       2317.    
        2302.       2213.       2184.       2121.       2036.       2029.       2011.       1948.       2040.       2087.    
        2112.       2111.       2107.       2110.       2104.       2095.       2056.       2077.       2109.       2117.    
        2155.       2164.       2143.       2145.       2143.       2137.       2137.       2233.       2219.       2153.    
        2084.       2013.       1939.       1864.       1786.       1705.       1622.       1537.       1449.       1359.    
        1267.       1172.       1075.       975.2       873.1       768.5    
  82    2260.       2258.       2256.       2255.       2255.       2255.       2255.       2256.       2257.       2259.    
        2261.       2264.       2266.       2490.       2329.       2180.       2197.       2213.       2229.       2235.    
        2255.       2241.       2246.       2281.       2377.       2432.       2304.       2248.       2237.       2195.    
        2163.       2132.       2110.       2063.       1997.       2009.       1959.       1941.       2023.       2085.    
        2100.       2098.       2097.       2100.       2095.       2084.       2047.       2065.       2090.       2102.    
        2131.       2149.       2169.       2146.       2122.       2107.       2090.       2228.       2167.       2102.    
        2036.       1967.       1896.       1823.       1747.       1669.       1588.       1506.       1420.       1333.    
        1243.       1151.       1056.       958.6       859.0       757.0    
  83    2264.       2261.       2259.       2257.       2256.       2255.       2255.       2255.       2255.       2256.    
        2258.       2259.       2179.       3037.       2232.       2161.       2180.       2198.       2214.       2246.    
        2242.       2237.       2261.       2335.       2445.       2339.       2240.       2191.       2149.       2128.    
        2085.       2058.       2028.       2023.       1965.       1928.       1958.       2020.       2041.       2086.    
        2090.       2085.       2087.       2089.       2085.       2073.       2036.       2064.       2078.       2098.    
        2101.       2120.       2139.       2118.       2114.       2121.       2114.       2177.       2117.       2055.    
        1991.       1925.       1856.       1785.       1711.       1635.       1557.       1477.       1394.       1309.    
        1221.       1131.       1039.       944.4       847.3       747.8    
  84    2267.       2264.       2261.       2258.       2256.       2255.       2254.       2253.       2253.       2253.    
        2254.       2265.       2043.       2264.       2138.       2143.       2164.       2184.       2180.       2236.    
        2228.       2235.       2274.       2413.       2459.       2319.       2242.       2180.       2133.       2096.    
        2054.       2033.       2027.       1981.       1928.       1968.       2019.       2022.       2049.       2083.    
        2080.       2075.       2075.       2081.       2076.       2062.       2037.       2060.       2069.       2079.    
        2082.       2105.       2106.       2098.       2086.       2113.       2184.       2129.       2071.       2011.    
        1949.       1885.       1818.       1749.       1678.       1605.       1529.       1451.       1370.       1287.    
        1202.       1115.       1025.       932.6       838.0       741.0    
  85    2270.       2266.       2262.       2259.       2256.       2254.       2252.       2251.       2250.       2249.    
        2249.       2243.       2315.       2307.       2103.       2127.       2150.       2170.       2194.       2211.    
        2214.       2228.       2264.       2432.       2477.       2330.       2208.       2176.       2117.       2079.    
        2043.       2003.       1990.       1950.       1919.       1985.       2011.       2021.       2065.       2072.    
        2072.       2066.       2064.       2072.       2068.       2038.       2039.       2047.       2041.       2054.    
        2072.       2082.       2067.       2070.       2078.       2061.       2137.       2084.       2028.       1971.    
        1911.       1849.       1784.       1717.       1648.       1577.       1504.       1428.       1349.       1269.    
        1186.       1101.       1013.       923.5       831.3       736.7    
  86    2273.       2268.       2264.       2260.       2256.       2253.       2251.       2248.       2247.       2245.    
        2245.       2171.       3023.       2206.       2087.       2113.       2137.       2140.       2220.       2197.    
        2200.       2183.       2306.       2405.       2433.       2297.       2164.       2184.       2133.       2086.    
        2061.       2038.       1999.       1939.       1908.       1994.       2005.       2037.       2064.       2063.    
        2063.       2059.       2053.       2064.       2055.       2013.       2046.       2028.       2020.       2034.    
        2050.       2055.       2048.       2046.       2056.       2119.       2094.       2043.       1989.       1934.    
        1876.       1816.       1753.       1689.       1622.       1553.       1481.       1408.       1332.       1253.    
        1173.       1090.       1005.       917.2       827.3       735.0    
  87    2275.       2269.       2264.       2260.       2255.       2252.       2248.       2245.       2243.       2241.    
        2241.       2050.       2269.       2096.       2072.       2100.       2125.       2149.       2192.       2182.    
        2187.       2243.       2250.       2332.       2372.       2203.       2085.       2083.       2102.       2066.    
        2015.       1985.       1983.       1922.       1909.       1993.       2000.       2043.       2055.       2052.    
        2054.       2040.       2053.       2052.       2031.       2010.       2041.       2024.       2011.       2024.    
        2039.       2033.       2034.       2034.       2044.       2101.       2054.       2005.       1954.       1900.    
        1844.       1786.       1726.       1663.       1599.       1532.       1462.       1391.       1317.       1241.    
        1163.       1082.       998.9       913.7       826.1       736.2    
  88    2277.       2270.       2264.       2259.       2254.       2250.       2246.       2242.       2239.       2236.    
        2224.       2138.       2289.       2030.       2060.       2089.       2112.       2162.       2148.       2168.    
        2175.       2187.       2209.       2208.       2287.       2233.       2091.       2033.       2013.       1988.    
        2010.       1982.       1931.       1899.       1910.       1985.       2006.       2044.       2043.       2037.    
        2041.       2015.       2043.       2031.       1992.       2023.       2024.       2004.       2013.       2028.    
        2035.       2024.       2024.       2034.       2032.       2064.       2019.       1971.       1922.       1870.    
        1816.       1760.       1702.       1641.       1579.       1514.       1447.       1377.       1305.       1232.    
        1155.       1077.       996.2       913.1       827.8       740.1    
  89    2278.       2271.       2264.       2258.       2252.       2247.       2242.       2238.       2234.       2231.    
        2164.       2990.       2186.       2014.       2049.       2079.       2073.       2193.       2132.       2154.    
        2162.       2174.       2176.       2145.       2260.       2216.       2084.       2048.       2013.       1973.    
        1949.       1931.       1918.       1892.       1918.       1982.       2008.       2030.       2010.       1998.    
        2003.       1987.       2008.       1990.       1997.       2015.       1999.       2024.       2038.       2036.    
        2020.       2013.       2020.       2030.       2071.       2030.       1987.       1941.       1894.       1844.    
        1792.       1738.       1681.       1623.       1562.       1499.       1434.       1367.       1297.       1226.    
        1151.       1075.       996.6       915.7       832.6       747.2    
  90    2278.       2271.       2263.       2257.       2250.       2244.       2239.       2234.       2229.       2225.    
        2057.       2284.       2069.       2003.       2040.       2069.       2113.       2141.       2122.       2140.    
        2151.       2162.       2129.       2108.       2166.       2241.       2192.       2074.       2025.       1993.    
        1973.       1924.       1890.       1895.       1922.       1974.       1991.       1966.       1936.       1938.    
        1952.       1964.       1963.       1972.       1989.       1993.       2004.       2024.       2039.       2028.    
        2018.       2008.       2008.       2014.       2040.       2000.       1959.       1915.       1870.       1822.    
        1772.       1719.       1665.       1608.       1550.       1489.       1426.       1360.       1293.       1223.    
        1151.       1077.       1000.       921.5       840.5       757.3    
  91    2278.       2270.       2262.       2254.       2247.       2241.       2234.       2229.       2223.       2210.    
        1999.       2273.       1976.       1994.       2032.       2036.       2159.       2086.       2111.       2128.    
        2143.       2137.       2089.       2070.       2160.       2284.       2263.       2080.       2000.       1975.    
        1954.       1930.       1881.       1889.       1929.       1969.       1951.       1922.       1982.       1996.    
        1995.       1968.       1996.       1967.       1996.       2023.       2030.       2025.       2028.       2016.    
        2011.       2004.       2001.       2042.       2013.       1975.       1935.       1893.       1849.       1803.    
        1755.       1705.       1652.       1598.       1541.       1482.       1421.       1357.       1292.       1224.    
        1154.       1082.       1007.       930.7       851.8       770.7    
  92    2278.       2269.       2260.       2252.       2244.       2237.       2230.       2223.       2217.       2159.    
        2939.       2171.       1945.       1987.       2024.       2079.       2148.       2052.       2099.       2117.    
        2138.       2079.       2058.       2047.       2187.       2251.       2126.       2045.       1977.       1954.    
        1928.       1909.       1873.       1883.       1946.       1956.       1916.       1985.       2003.       2032.    
        2037.       2005.       2027.       2019.       2017.       2033.       2048.       2041.       2042.       2028.    
        2023.       2004.       2000.       2024.       1990.       1954.       1916.       1876.       1834.       1789.    
        1743.       1694.       1644.       1591.       1536.       1479.       1419.       1358.       1294.       1228.    
        1160.       1090.       1018.       943.3       866.5       787.4    
  93    2277.       2267.       2258.       2249.       2240.       2232.       2225.       2217.       2211.       2064.    
        2300.       2052.       1936.       1982.       2013.       2051.       2087.       2050.       2089.       2110.    
        2126.       2038.       2030.       2024.       2139.       2236.       2123.       2055.       2010.       1987.    
        1927.       1898.       1894.       1872.       1933.       1921.       1941.       2040.       2042.       2058.    
        2055.       2032.       2027.       2038.       2036.       2031.       2039.       2053.       2056.       2043.    
        2026.       2005.       2014.       2004.       1972.       1938.       1901.       1863.       1822.       1780.    
        1735.       1688.       1639.       1588.       1535.       1479.       1422.       1362.       1301.       1237.    
        1171.       1103.       1032.       959.5       884.7       807.7    
  94    2275.       2265.       2255.       2245.       2236.       2227.       2219.       2211.       2200.       1974.    
        2258.       1944.       1931.       1977.       1986.       2145.       2027.       2047.       2081.       2094.    
        2047.       2012.       2007.       2003.       2052.       2206.       2129.       2073.       2087.       2052.    
        1963.       1942.       1917.       1863.       1923.       1901.       1911.       1955.       2003.       2035.    
        2050.       2059.       2047.       2049.       2054.       2048.       2041.       2055.       2069.       2060.    
        2025.       2009.       2018.       1989.       1959.       1926.       1891.       1854.       1815.       1774.    
        1731.       1686.       1639.       1589.       1538.       1484.       1429.       1371.       1311.       1249.    
        1185.       1119.       1050.       979.4       906.6       831.5    
  95    2273.       2262.       2251.       2241.       2231.       2221.       2212.       2204.       2156.       2873.    
        2158.       1883.       1929.       1971.       2033.       2097.       1981.       2042.       2076.       2108.    
        1996.       1994.       1985.       1990.       2025.       2163.       2239.       2125.       2035.       2056.    
        1991.       1938.       1893.       1857.       1920.       1884.       1938.       1982.       2007.       2019.    
        2029.       2044.       2074.       2078.       2086.       2073.       2057.       2062.       2057.       2036.    
        2024.       2023.       2006.       1979.       1950.       1919.       1885.       1850.       1813.       1773.    
        1732.       1688.       1643.       1595.       1545.       1494.       1440.       1384.       1326.       1265.    
        1203.       1139.       1072.       1003.       932.2       859.1    
  96    2270.       2258.       2247.       2236.       2225.       2215.       2205.       2196.       2071.       2294.    
        2041.       1874.       1927.       1939.       2090.       2034.       1970.       2039.       2074.       2081.    
        1948.       1980.       1976.       1981.       2021.       2182.       2164.       2060.       2010.       2005.    
        2010.       1937.       1876.       1862.       1880.       1951.       1969.       2002.       1995.       2030.    
        2065.       2077.       2168.       2178.       2221.       2154.       2144.       2117.       2059.       2036.    
        2040.       2023.       2000.       1974.       1946.       1916.       1884.       1851.       1815.       1777.    
        1737.       1695.       1651.       1605.       1557.       1507.       1455.       1401.       1344.       1286.    
        1225.       1163.       1098.       1031.       961.8       890.6    
  97    2267.       2254.       2242.       2230.       2219.       2208.       2198.       2188.       1977.       2241.    
        1928.       1873.       1926.       1995.       2100.       1973.       1981.       2039.       2058.       2013.    
        1945.       1968.       1957.       1974.       2034.       2193.       2166.       2069.       2002.       1984.    
        1949.       1950.       1878.       1851.       1871.       1977.       2005.       2029.       2021.       2082.    
        2186.       2211.       2256.       2253.       2252.       2239.       2241.       2221.       2086.       2028.    
        2030.       2015.       1996.       1972.       1947.       1919.       1888.       1856.       1822.       1786.    
        1747.       1707.       1665.       1620.       1574.       1525.       1475.       1422.       1367.       1311.    
        1252.       1191.       1128.       1063.       995.4       926.0    
  98    2263.       2249.       2236.       2224.       2212.       2201.       2189.       2156.       2791.       2145.    
        1843.       1875.       1920.       1915.       2044.       1925.       1989.       2041.       2088.       1967.    
        1953.       1955.       1946.       1970.       2030.       2198.       2172.       2098.       1987.       1994.    
        1950.       1913.       1879.       1849.       1942.       1975.       2020.       2048.       2063.       2175.    
        2251.       2237.       2213.       2226.       2240.       2218.       2190.       2220.       2106.       2030.    
        2011.       2003.       1990.       1972.       1949.       1921.       1898.       1867.       1834.       1799.    
        1762.       1723.       1682.       1640.       1595.       1548.       1499.       1448.       1395.       1340.    
        1283.       1223.       1162.       1099.       1033.       965.5    
  99    2258.       2244.       2230.       2217.       2204.       2192.       2181.       2077.       2277.       2034.    
        1819.       1878.       1927.       2089.       1983.       1896.       1997.       2007.       2024.       1940.    
        1957.       1935.       1954.       1982.       2042.       2096.       2123.       2014.       1981.       1974.    
        1982.       1924.       1876.       1879.       1963.       1992.       2007.       2050.       2124.       2137.    
        2213.       2231.       2197.       2192.       2218.       2202.       2165.       2223.       2186.       2063.    
        1992.       1986.       1980.       1967.       1950.       1929.       1902.       1869.       1848.       1817.    
        1782.       1745.       1705.       1664.       1621.       1575.       1528.       1478.       1427.       1373.    
        1318.       1260.       1201.       1139.       1075.       1009.    
 100    2252.       2237.       2223.       2209.       2196.       2183.       2171.       1982.       2221.       1923.    
        1820.       1879.       1952.       2048.       1929.       1918.       2006.       2049.       1993.       1937.    
        1956.       1952.       1971.       2002.       2023.       2001.       2005.       2014.       1991.       1955.    
        2013.       2005.       1885.       1925.       2019.       2001.       2016.       2103.       2064.       2064.    
        2171.       2204.       2195.       2151.       2194.       2178.       2165.       2214.       2233.       1983.    
        1975.       1968.       1961.       1955.       1949.       1932.       1911.       1885.       1854.       1818.    
        1796.       1771.       1733.       1693.       1651.       1607.       1561.       1514.       1464.       1412.    
        1358.       1302.       1244.       1184.       1122.       1057.    
 101    2245.       2230.       2215.       2201.       2187.       2174.       2156.       2694.       2130.       1829.    
        1828.       1852.       2020.       1993.       1885.       1944.       1994.       2042.       1971.       1952.    
        1953.       1975.       1987.       2010.       2054.       2003.       1966.       1993.       1967.       1982.    
        2028.       2013.       1870.       1966.       2039.       2006.       2002.       2048.       2032.       2121.    
        2180.       2203.       2178.       2138.       2164.       2132.       2174.       2257.       2134.       1967.    
        1959.       1951.       1944.       1937.       1930.       1923.       1917.       1897.       1872.       1842.    
        1807.       1767.       1742.       1725.       1687.       1644.       1600.       1554.       1505.       1455.    
        1402.       1348.       1291.       1233.       1172.       1110.    
 102    2238.       2222.       2207.       2192.       2177.       2163.       2084.       2252.       2027.       1777.    
        1835.       1909.       2042.       1940.       1856.       1964.       1984.       2011.       1972.       1984.    
        1979.       1977.       2002.       2016.       2002.       2021.       1997.       1950.       1945.       1965.    
        2005.       1982.       1885.       1966.       2017.       1989.       2000.       1985.       2046.       2071.    
        2180.       2186.       2193.       2150.       2100.       2104.       2212.       2252.       1961.       1952.    
        1944.       1935.       1927.       1920.       1912.       1905.       1898.       1892.       1886.       1862.    
        1833.       1799.       1760.       1715.       1688.       1675.       1644.       1599.       1552.       1503.    
        1452.       1399.       1344.       1287.       1228.       1167.    
 103    2230.       2213.       2197.       2182.       2166.       2152.       1989.       2195.       1924.       1777.    
        1836.       1845.       1996.       1895.       1857.       1974.       2047.       1997.       2021.       2021.    
        2009.       2004.       2010.       1983.       1972.       2004.       1990.       1966.       1914.       1936.    
        1994.       2051.       1907.       1899.       1976.       1944.       1978.       1986.       2002.       2083.    
        2175.       2156.       2175.       2178.       2065.       2140.       2253.       2064.       1948.       1939.    
        1929.       1921.       1912.       1904.       1896.       1888.       1881.       1874.       1867.       1861.    
        1855.       1826.       1793.       1755.       1712.       1664.       1634.       1623.       1601.       1556.    
        1506.       1455.       1401.       1346.       1288.       1229.    
 104    2220.       2203.       2187.       2171.       2155.       2139.       2585.       2112.       1832.       1789.    
        1889.       2021.       1947.       1863.       1908.       1930.       2020.       2027.       2023.       2032.    
        2044.       2040.       2010.       1962.       1951.       1988.       1959.       2020.       1947.       1925.    
        2034.       2068.       1902.       1858.       1909.       1975.       2072.       2084.       2091.       2109.    
        2157.       2129.       2118.       2108.       2086.       2197.       2201.       1945.       1935.       1925.    
        1916.       1907.       1898.       1889.       1880.       1872.       1864.       1857.       1849.       1842.    
        1836.       1830.       1824.       1791.       1754.       1712.       1665.       1613.       1579.       1569.    
        1555.       1515.       1463.       1409.       1353.       1295.    
 105    2210.       2192.       2175.       2158.       2142.       2092.       2219.       2019.       1763.       1801.    
        1873.       1987.       1906.       1843.       1938.       1990.       2014.       1997.       1998.       2024.    
        2063.       2104.       2022.       1964.       1936.       1939.       1911.       1960.       1939.       1911.    
        2038.       2018.       1859.       1867.       2018.       2057.       2105.       2114.       2070.       2092.    
        2122.       2141.       2119.       2090.       2141.       2175.       1959.       1933.       1923.       1913.    
        1903.       1893.       1884.       1875.       1866.       1857.       1849.       1841.       1833.       1825.    
        1818.       1811.       1805.       1799.       1792.       1756.       1715.       1669.       1618.       1561.    
        1525.       1514.       1505.       1477.       1424.       1367.    
 106    2198.       2180.       2163.       2145.       2128.       1995.       2162.       1928.       1748.       1786.    
        1947.       1945.       1876.       1837.       1911.       2015.       1991.       1976.       1996.       2024.    
        2040.       2078.       1994.       1961.       1933.       1907.       1894.       1886.       1913.       1881.    
        1971.       1913.       1819.       1902.       2023.       2068.       2099.       2085.       2052.       2102.    
        2118.       2124.       2131.       2108.       2103.       2142.       1933.       1922.       1911.       1901.    
        1891.       1881.       1871.       1862.       1852.       1843.       1834.       1825.       1817.       1809.    
        1801.       1794.       1786.       1780.       1773.       1768.       1761.       1721.       1676.       1626.    
        1570.       1510.       1470.       1458.       1453.       1434.    
 107    2185.       2167.       2149.       2131.       2114.       2463.       2086.       1845.       1764.       1824.    
        1967.       1909.       1859.       1885.       1940.       1989.       1974.       1958.       1982.       1995.    
        2003.       1994.       1988.       1958.       1953.       1945.       1920.       1878.       1852.       1870.    
        1917.       1845.       1809.       1960.       2075.       2101.       2069.       2020.       2042.       2106.    
        2122.       2082.       2098.       2074.       2098.       2011.       1922.       1911.       1900.       1890.    
        1879.       1869.       1859.       1849.       1839.       1830.       1820.       1811.       1802.       1794.    
        1785.       1777.       1770.       1762.       1755.       1748.       1742.       1739.       1730.       1685.    
        1636.       1582.       1523.       1459.       1415.       1402.    
 108    2171.       2152.       2134.       2115.       2094.       2173.       2007.       1777.       1778.       1825.    
        1933.       1885.       1855.       1895.       1965.       1963.       1946.       1961.       1986.       1997.    
        1943.       1923.       1924.       1954.       1959.       1925.       1898.       1873.       1844.       1858.    
        1882.       1814.       1843.       2064.       2094.       2077.       2028.       2009.       2051.       2079.    
        2110.       2084.       2063.       2053.       2082.       1923.       1912.       1901.       1890.       1879.    
        1868.       1858.       1847.       1837.       1827.       1817.       1807.       1798.       1788.       1779.    
        1771.       1762.       1754.       1746.       1738.       1731.       1724.       1717.       1711.       1710.    
        1699.       1650.       1597.       1539.       1476.       1407.    
 109    2156.       2136.       2117.       2098.       1998.       2118.       1930.       1742.       1809.       1934.    
        1902.       1873.       1863.       1881.       1930.       1938.       1931.       1948.       1962.       1979.    
        1921.       1889.       1882.       1892.       1925.       1910.       1886.       1861.       1840.       1838.    
        1849.       1800.       1887.       2081.       2057.       1999.       1970.       1993.       2023.       2072.    
        2081.       2058.       2051.       2043.       1940.       1914.       1902.       1891.       1880.       1869.    
        1858.       1847.       1836.       1825.       1815.       1805.       1795.       1785.       1775.       1766.    
        1757.       1748.       1739.       1730.       1722.       1714.       1707.       1699.       1692.       1686.    
        1680.       1681.       1668.       1615.       1558.       1496.    
 110    2138.       2118.       2099.       2080.       2331.       2052.       1863.       1757.       1799.       1908.    
        1883.       1874.       1881.       1898.       1914.       1916.       1934.       1962.       1982.       1962.    
        1931.       1895.       1860.       1845.       1899.       1921.       1895.       1866.       1848.       1820.    
        1829.       1796.       1879.       1934.       1919.       1930.       2003.       2028.       2063.       2085.    
        2064.       2026.       2009.       2021.       1916.       1905.       1893.       1881.       1870.       1859.    
        1847.       1836.       1825.       1814.       1804.       1793.       1783.       1773.       1763.       1753.    
        1743.       1734.       1725.       1716.       1707.       1699.       1690.       1683.       1675.       1668.    
        1661.       1654.       1648.       1653.       1636.       1580.    
 111    2119.       2099.       2079.       2060.       2114.       1985.       1808.       1763.       1869.       1883.    
        1878.       1892.       1897.       1896.       1902.       1927.       1953.       1961.       1956.       1895.    
        1902.       1873.       1864.       1828.       1862.       1892.       1845.       1809.       1822.       1792.    
        1789.       1798.       1836.       1877.       2013.       2038.       2083.       2084.       2061.       2044.    
        2046.       2040.       2005.       1920.       1908.       1896.       1884.       1872.       1860.       1849.    
        1838.       1826.       1815.       1804.       1793.       1782.       1772.       1761.       1751.       1741.    
        1731.       1721.       1711.       1702.       1693.       1684.       1675.       1667.       1659.       1651.    
        1644.       1636.       1630.       1623.       1617.       1625.    
 112    2098.       2078.       2058.       1998.       2061.       1926.       1772.       1759.       1870.       1870.    
        1860.       1881.       1886.       1892.       1919.       1923.       1916.       1905.       1926.       1875.    
        1882.       1877.       1844.       1814.       1816.       1860.       1819.       1797.       1777.       1782.    
        1802.       1819.       1833.       1894.       2014.       2065.       2049.       2078.       2044.       2027.    
        2009.       2025.       1991.       1911.       1899.       1887.       1875.       1863.       1851.       1840.    
        1828.       1817.       1805.       1794.       1783.       1772.       1761.       1750.       1739.       1729.    
        1719.       1709.       1699.       1689.       1680.       1670.       1661.       1652.       1644.       1635.    
        1627.       1620.       1612.       1605.       1598.       1592.    
 113    2075.       2054.       2034.       2189.       2003.       1876.       1776.       1811.       1851.       1843.    
        1867.       1865.       1881.       1908.       1911.       1892.       1897.       1886.       1896.       1858.    
        1863.       1841.       1872.       1831.       1792.       1822.       1806.       1773.       1772.       1808.    
        1858.       1891.       1874.       1911.       1966.       1971.       2023.       2051.       2039.       2007.    
        1987.       2006.       1916.       1903.       1891.       1879.       1867.       1855.       1843.       1831.    
        1819.       1807.       1796.       1784.       1773.       1762.       1750.       1739.       1729.       1718.    
        1707.       1697.       1687.       1677.       1667.       1657.       1648.       1638.       1629.       1620.    
        1612.       1604.       1596.       1588.       1581.       1574.    
 114    2049.       2028.       2008.       2037.       1950.       1842.       1774.       1819.       1842.       1855.    
        1857.       1868.       1904.       1909.       1890.       1859.       1863.       1859.       1885.       1857.    
        1860.       1828.       1852.       1823.       1791.       1787.       1776.       1761.       1802.       1845.    
        1854.       1864.       1881.       1895.       1925.       1987.       2006.       2043.       2029.       2014.    
        2012.       2002.       1908.       1896.       1883.       1871.       1858.       1846.       1834.       1822.    
        1810.       1798.       1786.       1775.       1763.       1752.       1740.       1729.       1718.       1707.    
        1696.       1686.       1675.       1665.       1655.       1645.       1635.       1625.       1616.       1606.    
        1597.       1589.       1580.       1572.       1564.       1556.    
 115    2021.       2000.       1978.       1986.       1906.       1825.       1788.       1804.       1836.       1840.    
        1851.       1885.       1894.       1875.       1873.       1857.       1834.       1837.       1864.       1846.    
        1821.       1800.       1796.       1801.       1774.       1752.       1759.       1794.       1829.       1860.    
        1876.       1886.       1906.       1921.       1936.       2012.       2029.       2043.       2034.       2018.    
        2001.       1914.       1901.       1888.       1875.       1863.       1850.       1838.       1826.       1814.    
        1801.       1789.       1777.       1766.       1754.       1742.       1731.       1719.       1708.       1697.    
        1686.       1675.       1664.       1654.       1643.       1633.       1623.       1613.       1603.       1593.    
        1584.       1575.       1566.       1557.       1549.       1540.    
 116    1990.       1969.       2038.       1937.       1874.       1832.       1818.       1810.       1818.       1843.    
        1879.       1893.       1881.       1845.       1840.       1833.       1811.       1816.       1834.       1846.    
        1788.       1778.       1762.       1769.       1747.       1754.       1788.       1824.       1843.       1861.    
        1883.       1903.       1911.       1938.       1982.       2023.       1996.       1991.       1991.       2012.    
        2011.       1907.       1894.       1881.       1868.       1855.       1843.       1830.       1818.       1805.    
        1793.       1781.       1769.       1757.       1745.       1733.       1721.       1710.       1698.       1687.    
        1676.       1665.       1654.       1643.       1632.       1621.       1611.       1601.       1591.       1581.    
        1571.       1561.       1552.       1543.       1534.       1525.    
 117    1955.       1934.       1938.       1893.       1858.       1846.       1834.       1810.       1827.       1855.    
        1869.       1871.       1852.       1834.       1813.       1821.       1811.       1795.       1809.       1822.    
        1787.       1764.       1747.       1740.       1751.       1776.       1812.       1834.       1854.       1873.    
        1896.       1928.       1932.       1949.       2000.       2026.       1979.       1953.       1981.       1974.    
        1913.       1900.       1887.       1874.       1861.       1848.       1835.       1823.       1810.       1797.    
        1785.       1773.       1760.       1748.       1736.       1724.       1712.       1701.       1689.       1677.    
        1666.       1655.       1643.       1632.       1621.       1610.       1600.       1589.       1579.       1569.    
        1558.       1549.       1539.       1529.       1520.       1511.    
 118    1916.       1896.       1889.       1859.       1819.       1817.       1796.       1812.       1832.       1822.    
        1821.       1841.       1821.       1800.       1802.       1801.       1815.       1780.       1789.       1798.    
        1787.       1759.       1731.       1748.       1773.       1795.       1814.       1826.       1838.       1854.    
        1875.       1907.       1943.       1960.       2008.       2015.       1986.       1935.       1939.       1948.    
        1907.       1893.       1880.       1867.       1854.       1841.       1828.       1815.       1802.       1790.    
        1777.       1765.       1752.       1740.       1728.       1716.       1704.       1692.       1680.       1668.    
        1657.       1645.       1634.       1622.       1611.       1600.       1589.       1578.       1568.       1557.    
        1547.       1536.       1526.       1517.       1507.       1497.    
 119    1874.       1880.       1842.       1793.       1801.       1783.       1800.       1831.       1818.       1795.    
        1792.       1804.       1793.       1781.       1778.       1779.       1794.       1789.       1764.       1778.    
        1763.       1728.       1736.       1762.       1795.       1825.       1835.       1851.       1867.       1866.    
        1899.       1901.       1926.       1960.       2003.       1980.       1948.       1930.       1915.       1914.    
        1901.       1887.       1874.       1860.       1847.       1834.       1821.       1808.       1795.       1782.    
        1770.       1757.       1744.       1732.       1720.       1707.       1695.       1683.       1671.       1659.    
        1647.       1636.       1624.       1613.       1601.       1590.       1579.       1568.       1557.       1546.    
        1535.       1525.       1515.       1504.       1494.       1485.    
 120    1826.       1812.       1767.       1775.       1766.       1777.       1803.       1819.       1791.       1771.    
        1768.       1776.       1769.       1755.       1752.       1761.       1775.       1771.       1750.       1761.    
        1729.       1732.       1759.       1789.       1809.       1835.       1855.       1875.       1895.       1890.    
        1896.       1929.       1956.       1986.       2042.       2016.       1947.       1906.       1891.       1909.    
        1895.       1881.       1868.       1854.       1841.       1827.       1814.       1801.       1788.       1775.    
        1762.       1750.       1737.       1724.       1712.       1699.       1687.       1675.       1663.       1651.    
        1639.       1627.       1615.       1603.       1592.       1580.       1569.       1558.       1546.       1535.    
        1525.       1514.       1503.       1493.       1482.       1472.    
 121    1773.       1741.       1758.       1769.       1759.       1788.       1814.       1807.       1780.       1759.    
        1750.       1749.       1764.       1782.       1750.       1770.       1758.       1753.       1733.       1721.    
        1719.       1753.       1785.       1797.       1821.       1845.       1867.       1889.       1918.       1923.    
        1910.       1930.       1973.       2019.       1999.       1985.       1963.       1934.       1918.       1903.    
        1889.       1876.       1862.       1848.       1835.       1821.       1808.       1794.       1781.       1768.    
        1755.       1742.       1729.       1717.       1704.       1692.       1679.       1667.       1654.       1642.    
        1630.       1618.       1606.       1594.       1582.       1571.       1559.       1548.       1536.       1525.    
        1514.       1503.       1492.       1482.       1471.       1461.    
 122    1715.       1714.       1743.       1745.       1769.       1795.       1808.       1806.       1775.       1746.    
        1732.       1728.       1758.       1749.       1725.       1720.       1713.       1713.       1710.       1711.    
        1731.       1756.       1795.       1803.       1825.       1863.       1896.       1902.       1933.       1956.    
        1941.       1953.       1984.       2016.       1992.       1957.       1933.       1927.       1913.       1899.    
        1884.       1870.       1856.       1842.       1829.       1815.       1802.       1788.       1775.       1761.    
        1748.       1735.       1722.       1709.       1697.       1684.       1671.       1659.       1646.       1634.    
        1622.       1609.       1597.       1585.       1573.       1562.       1550.       1538.       1527.       1515.    
        1504.       1493.       1482.       1471.       1460.       1449.    
 123    1670.       1738.       1733.       1751.       1780.       1791.       1783.       1774.       1760.       1736.    
        1720.       1712.       1714.       1701.       1697.       1695.       1695.       1700.       1709.       1729.    
        1755.       1781.       1788.       1808.       1844.       1884.       1907.       1933.       1939.       1974.    
        1979.       1997.       1997.       1981.       1976.       1976.       1959.       1921.       1908.       1894.    
        1880.       1865.       1851.       1837.       1823.       1809.       1796.       1782.       1768.       1755.    
        1742.       1729.       1715.       1702.       1689.       1677.       1664.       1651.       1639.       1626.    
        1614.       1601.       1589.       1577.       1565.       1553.       1541.       1529.       1517.       1506.    
        1494.       1483.       1472.       1461.       1449.       1439.    
 124    1716.       1724.       1734.       1765.       1778.       1767.       1756.       1737.       1728.       1723.    
        1717.       1689.       1682.       1682.       1685.       1697.       1711.       1724.       1732.       1753.    
        1775.       1804.       1817.       1829.       1865.       1896.       1937.       1954.       1983.       1977.    
        2023.       1998.       2003.       1959.       1941.       1961.       1925.       1915.       1904.       1890.    
        1875.       1861.       1846.       1832.       1818.       1804.       1790.       1776.       1762.       1749.    
        1735.       1722.       1709.       1696.       1683.       1670.       1657.       1644.       1631.       1618.    
        1606.       1593.       1581.       1569.       1556.       1544.       1532.       1520.       1508.       1497.    
        1485.       1473.       1462.       1451.       1439.       1428.    
 125    1706.       1730.       1760.       1756.       1742.       1735.       1718.       1709.       1706.       1692.    
        1671.       1673.       1678.       1694.       1722.       1726.       1734.       1751.       1762.       1758.    
        1774.       1807.       1842.       1872.       1895.       1934.       1951.       1980.       1982.       1949.    
        1985.       1977.       1972.       1979.       1921.       1927.       1921.       1911.       1900.       1888.    
        1874.       1858.       1841.       1827.       1813.       1799.       1785.       1771.       1757.       1743.    
        1729.       1716.       1702.       1689.       1676.       1663.       1650.       1637.       1624.       1611.    
        1598.       1586.       1573.       1561.       1548.       1536.       1524.       1512.       1500.       1488.    
        1476.       1464.       1452.       1441.       1429.       1418.    
 126    1710.       1731.       1728.       1726.       1712.       1702.       1691.       1678.       1665.       1666.    
        1681.       1704.       1727.       1723.       1714.       1732.       1745.       1767.       1784.       1796.    
        1791.       1797.       1845.       1881.       1903.       1915.       1920.       1938.       1948.       1923.    
        1939.       1950.       1934.       1949.       1948.       1944.       1911.       1909.       1899.       1887.    
        1873.       1858.       1842.       1823.       1808.       1794.       1780.       1766.       1751.       1737.    
        1724.       1710.       1696.       1683.       1669.       1656.       1643.       1630.       1617.       1604.    
        1591.       1578.       1565.       1553.       1540.       1528.       1516.       1503.       1491.       1479.    
        1467.       1455.       1443.       1432.       1420.       1408.    
 127    1702.       1710.       1714.       1699.       1688.       1677.       1659.       1653.       1672.       1708.    
        1731.       1755.       1774.       1747.       1728.       1753.       1771.       1784.       1815.       1833.    
        1821.       1812.       1826.       1850.       1870.       1887.       1882.       1914.       1934.       1900.    
        1917.       1918.       1920.       1935.       1966.       1998.       1961.       1896.       1897.       1887.    
        1874.       1860.       1844.       1827.       1808.       1788.       1775.       1761.       1746.       1732.    
        1718.       1704.       1691.       1677.       1663.       1650.       1636.       1623.       1610.       1597.    
        1584.       1571.       1558.       1545.       1533.       1520.       1508.       1495.       1483.       1471.    
        1458.       1446.       1434.       1423.       1411.       1399.    
 128    1674.       1672.       1666.       1668.       1661.       1651.       1658.       1698.       1725.       1740.    
        1760.       1771.       1791.       1773.       1753.       1779.       1804.       1813.       1824.       1815.    
        1809.       1803.       1801.       1824.       1843.       1855.       1867.       1915.       1917.       1918.    
        1894.       1899.       1905.       1924.       1968.       2027.       2049.       1979.       1880.       1873.    
        1877.       1863.       1848.       1831.       1813.       1793.       1771.       1754.       1742.       1727.    
        1713.       1699.       1685.       1671.       1657.       1644.       1630.       1617.       1603.       1590.    
        1577.       1564.       1551.       1538.       1525.       1512.       1500.       1487.       1475.       1462.    
        1450.       1438.       1426.       1414.       1402.       1390.    
 129    1657.       1648.       1641.       1637.       1646.       1675.       1719.       1738.       1749.       1763.    
        1775.       1783.       1794.       1797.       1780.       1775.       1786.       1785.       1790.       1795.    
        1773.       1773.       1784.       1804.       1843.       1844.       1883.       1867.       1872.       1877.    
        1881.       1886.       1891.       1898.       1953.       2025.       2103.       2099.       1996.       1865.    
        1838.       1866.       1853.       1837.       1820.       1800.       1779.       1757.       1734.       1721.    
        1709.       1694.       1680.       1666.       1652.       1638.       1624.       1611.       1597.       1584.    
        1570.       1557.       1544.       1531.       1518.       1505.       1492.       1480.       1467.       1455.    
        1442.       1430.       1418.       1405.       1393.       1381.    
 130    1636.       1624.       1626.       1640.       1688.       1704.       1723.       1725.       1744.       1750.    
        1743.       1748.       1775.       1778.       1767.       1757.       1766.       1765.       1775.       1763.    
        1754.       1754.       1774.       1808.       1829.       1839.       1847.       1854.       1859.       1864.    
        1868.       1872.       1877.       1883.       1923.       2007.       2107.       2184.       2150.       2013.    
        1849.       1799.       1843.       1845.       1828.       1809.       1789.       1767.       1744.       1719.    
        1699.       1688.       1675.       1661.       1647.       1633.       1619.       1605.       1591.       1578.    
        1564.       1551.       1537.       1524.       1511.       1498.       1485.       1472.       1460.       1447.    
        1434.       1422.       1409.       1397.       1385.       1373.    
 131    1616.       1622.       1628.       1649.       1675.       1694.       1703.       1740.       1751.       1731.    
        1708.       1722.       1750.       1756.       1751.       1748.       1747.       1755.       1762.       1762.    
        1772.       1784.       1796.       1806.       1815.       1825.       1834.       1841.       1847.       1851.    
        1855.       1859.       1864.       1869.       1876.       1972.       2085.       2205.       2266.       2200.    
        2031.       1834.       1756.       1803.       1836.       1820.       1800.       1779.       1756.       1732.    
        1707.       1680.       1665.       1655.       1642.       1628.       1613.       1599.       1586.       1572.    
        1558.       1545.       1531.       1518.       1504.       1491.       1478.       1465.       1452.       1439.    
        1427.       1414.       1402.       1389.       1377.       1364.    



             MODEL LAYER BOTTOM EL. FOR LAYER   1
 READING ON UNIT 5012 WITH FORMAT: (FREE)              

            1           2           3           4           5           6           7           8           9          10
           11          12          13          14          15          16          17          18          19          20
           21          22          23          24          25          26          27          28          29          30
           31          32          33          34          35          36          37          38          39          40
           41          42          43          44          45          46          47          48          49          50
           51          52          53          54          55          56          57          58          59          60
           61          62          63          64          65          66          67          68          69          70
           71          72          73          74          75          76
 ........................................................................................................................
   1  -3.0264E+04 -2.9713E+04 -2.8673E+04 -2.7073E+04 -2.4839E+04 -2.1889E+04 -1.8139E+04 -1.3497E+04  -7866.      -1711.    
        4335.       4719.       5007.       4933.       4865.       4808.       4761.       4725.       4699.       4680.    
        4670.       4666.       4668.       4676.       4688.       4703.       4721.       4742.       4763.       4784.    
        4805.       4824.       4842.       4856.       4866.       4872.       4872.       4865.       4852.       4831.    
        4800.       4761.       4710.       4649.       4575.       4488.       4388.       4272.       4142.       3995.    
        3831.       3649.       3456.       3657.       3921.       4061.       4003.       3854.       3649.       3425.    
        3218.       3066.       3007.       3075.       3310.       3643.       3611.       3419.       3584.       3595.    
        3647.       3683.       3851.       3775.       3882.       3830.    
   2  -2.7993E+04 -2.8010E+04 -2.7623E+04 -2.6768E+04 -2.5372E+04 -2.3359E+04 -2.0647E+04 -1.7145E+04 -1.2760E+04  -7391.    
       -1499.       4285.       4658.       4932.       4857.       4789.       4733.       4687.       4652.       4625.    
        4607.       4597.       4594.       4596.       4604.       4616.       4631.       4650.       4670.       4691.    
        4712.       4733.       4752.       4769.       4783.       4793.       4798.       4798.       4791.       4777.    
        4756.       4725.       4684.       4633.       4571.       4497.       4409.       4308.       4192.       4061.    
        3913.       3748.       3565.       3479.       3603.       3710.       3784.       3921.       3904.       3863.    
        3620.       3226.       3010.       3062.       3334.       3715.       3641.       3545.       3758.       3746.    
        3705.       3625.       3779.       3981.       3982.       3899.    
   3  -2.5169E+04 -2.5633E+04 -2.5782E+04 -2.5551E+04 -2.4874E+04 -2.3678E+04 -2.1884E+04 -1.9406E+04 -1.6152E+04 -1.2023E+04
       -6916.      -1286.       4236.       4596.       4857.       4781.       4714.       4658.       4613.       4578.    
        4552.       4534.       4524.       4521.       4524.       4532.       4544.       4559.       4578.       4598.    
        4619.       4640.       4661.       4680.       4696.       4710.       4720.       4725.       4724.       4717.    
        4703.       4680.       4649.       4608.       4556.       4493.       4418.       4330.       4228.       4111.    
        3979.       3830.       3665.       3481.       3285.       3526.       3754.       3986.       3840.       3519.    
        3235.       3097.       3151.       3274.       3315.       3811.       3748.       3643.       3870.       3733.    
        3723.       3594.       3796.       3871.       3808.       3844.    
   4  -2.1960E+04 -2.2753E+04 -2.3313E+04 -2.3583E+04 -2.3500E+04 -2.2995E+04 -2.1993E+04 -2.0413E+04 -1.8167E+04 -1.5159E+04
      -1.1287E+04  -6440.      -1073.       4186.       4534.       4781.       4706.       4639.       4584.       4539.    
        4504.       4478.       4461.       4451.       4448.       4451.       4459.       4472.       4487.       4506.    
        4526.       4547.       4568.       4588.       4607.       4624.       4637.       4647.       4651.       4650.    
        4643.       4628.       4605.       4573.       4532.       4479.       4416.       4340.       4251.       4148.    
        4031.       3898.       3733.       3610.       3425.       3709.       3705.       3931.       3811.       3460.    
        3215.       3309.       3371.       3532.       3457.       3819.       3866.       3774.       3718.       3697.    
        3569.       3519.       3484.       3749.       3869.       3728.    
   5  -1.8550E+04 -1.9548E+04 -2.0395E+04 -2.1038E+04 -2.1419E+04 -2.1473E+04 -2.1132E+04 -2.0318E+04 -1.8947E+04 -1.6930E+04
      -1.4166E+04 -1.0550E+04  -5965.      -859.6       4137.       4472.       4705.       4630.       4564.       4509.    
        4465.       4430.       4405.       4388.       4379.       4376.       4379.       4387.       4400.       4415.    
        4434.       4454.       4475.       4496.       4516.       4535.       4551.       4564.       4574.       4578.    
        4577.       4569.       4553.       4530.       4498.       4455.       4403.       4338.       4262.       4172.    
        4068.       3765.       3922.       3690.       3605.       3847.       3854.       3843.       3603.       3401.    
        3356.       3567.       3520.       3633.       3597.       3634.       3788.       3913.       3862.       3719.    
        3747.       3694.       3382.       3688.       3965.       3878.    
   6  -1.5134E+04 -1.6212E+04 -1.7218E+04 -1.8102E+04 -1.8813E+04 -1.9292E+04 -1.9473E+04 -1.9287E+04 -1.8653E+04 -1.7488E+04
      -1.5696E+04 -1.3175E+04  -9813.      -5489.      -646.6       4088.       4410.       4630.       4555.       4489.    
        4434.       4391.       4357.       4332.       4315.       4306.       4303.       4307.       4315.       4328.    
        4343.       4362.       4382.       4403.       4424.       4444.       4463.       4479.       4492.       4500.    
        4504.       4503.       4494.       4479.       4455.       4422.       4379.       4325.       4261.       4183.    
        3784.       3889.       3908.       3703.       3760.       3906.       3907.       3697.       3487.       3428.    
        3587.       3760.       3625.       3641.       3520.       3520.       3747.       3882.       3908.       3778.    
        3769.       3592.       3387.       3549.       3834.       3873.    
   7  -1.1917E+04 -1.2951E+04 -1.3986E+04 -1.4980E+04 -1.5884E+04 -1.6647E+04 -1.7209E+04 -1.7505E+04 -1.7462E+04 -1.7002E+04
      -1.6035E+04 -1.4465E+04 -1.2185E+04  -9077.      -5014.      -433.6       4038.       4348.       4554.       4479.    
        4414.       4360.       4316.       4283.       4258.       4242.       4233.       4231.       4234.       4243.    
        4256.       4271.       4290.       4310.       4331.       4352.       4372.       4390.       4406.       4419.    
        4427.       4431.       4429.       4420.       4404.       4379.       4346.       4303.       4248.       3915.    
        3937.       3874.       3911.       3809.       3871.       3929.       3799.       3537.       3356.       3502.    
        3682.       3532.       3508.       3403.       3360.       3532.       3855.       3750.       3808.       3822.    
        3791.       3688.       3322.       3504.       3871.       3942.    
   8   -9118.      -9982.     -1.0918E+04 -1.1886E+04 -1.2846E+04 -1.3751E+04 -1.4547E+04 -1.5176E+04 -1.5572E+04 -1.5662E+04
      -1.5366E+04 -1.4591E+04 -1.3238E+04 -1.1195E+04  -8340.      -4539.      -220.6       3989.       4287.       4478.    
        4404.       4339.       4285.       4242.       4209.       4185.       4169.       4160.       4158.       4162.    
        4171.       4183.       4199.       4218.       4238.       4259.       4280.       4299.       4318.       4333.    
        4346.       4354.       4357.       4355.       4346.       4329.       4304.       4270.       3851.       3578.    
        3670.       3800.       3938.       3910.       3948.       3748.       3469.       3289.       3393.       3583.    
        3774.       3542.       3265.       3308.       3313.       3535.       3808.       3807.       3620.       3552.    
        3728.       3599.       3298.       3782.       3814.       4024.    
   9   -6966.      -7537.      -8244.      -9054.      -9931.     -1.0833E+04 -1.1714E+04 -1.2523E+04 -1.3200E+04 -1.3681E+04
      -1.3891E+04 -1.3747E+04 -1.3157E+04 -1.2016E+04 -1.0208E+04  -7604.      -4063.      -7.619       3939.       4225.    
        4402.       4328.       4264.       4211.       4168.       4135.       4112.       4096.       4088.       4086.    
        4090.       4099.       4111.       4127.       4146.       4166.       4187.       4207.       4227.       4245.    
        4261.       4273.       4281.       4284.       4281.       4271.       4254.       3779.       3576.       3192.    
        3240.       3424.       3889.       3930.       3815.       3686.       3449.       3187.       3413.       3713.    
        3676.       3429.       3196.       3545.       3461.       3637.       3904.       3784.       3528.       3312.    
        3307.       3177.       3340.       3849.       3999.       3938.    
  10   -5698.      -5856.      -6209.      -6729.      -7384.      -8140.      -8957.      -9790.     -1.0588E+04 -1.1293E+04
      -1.1839E+04 -1.2153E+04 -1.2150E+04 -1.1734E+04 -1.0798E+04  -9221.      -6868.      -3588.       205.4       3890.    
        4163.       4327.       4253.       4189.       4136.       4094.       4062.       4038.       4023.       4015.    
        4013.       4017.       4026.       4039.       4055.       4074.       4094.       4115.       4135.       4155.    
        4173.       4188.       4200.       4208.       4210.       4207.       3712.       3535.       3349.       3229.    
        3177.       3309.       3606.       3793.       3779.       3727.       3510.       3160.       3446.       3655.    
        3526.       3210.       3321.       3711.       3562.       3764.       3711.       3525.       3462.       3633.    
        3466.       3066.       3510.       3872.       3942.       3771.    
  11   -5025.      -5047.      -5066.      -5167.      -5466.      -5935.      -6539.      -7240.      -7996.      -8756.    
       -9465.     -1.0056E+04 -1.0455E+04 -1.0577E+04 -1.0325E+04  -9587.      -8237.      -6133.      -3113.       418.3    
        3841.       4101.       4251.       4177.       4114.       4062.       4020.       3988.       3965.       3950.    
        3942.       3941.       3945.       3954.       3967.       3984.       4002.       4022.       4043.       4063.    
        4083.       4100.       4115.       4127.       4134.       3651.       3652.       3353.       3286.       3544.    
        3307.       3547.       3714.       3489.       3376.       3326.       3286.       3142.       3411.       3640.    
        3397.       3121.       3357.       3765.       3868.       3849.       3888.       3816.       3799.       3562.    
        3123.       3058.       3457.       3638.       3863.       3834.    
  12   -4387.      -4405.      -4419.      -4431.      -4439.      -4494.      -4739.      -5155.      -5707.      -6354.    
       -7047.      -7730.      -8341.      -8805.      -9035.      -8933.      -8384.      -7256.      -5397.      -2637.    
        631.3       3791.       4039.       4175.       4102.       4039.       3987.       3946.       3914.       3892.    
        3877.       3870.       3868.       3873.       3882.       3895.       3912.       3930.       3950.       3971.    
        3991.       4010.       4028.       4043.       3593.       3473.       3677.       3558.       3431.       3726.    
        3487.       3834.       3656.       3471.       3364.       3287.       3161.       3140.       3482.       3571.    
        3287.       3079.       3372.       3735.       3799.       3689.       3884.       3836.       3677.       3274.    
        2974.       3177.       3320.       3431.       3825.       3935.    
  13   -3784.      -3797.      -3807.      -3814.      -3818.      -3819.      -3818.      -3835.      -4025.      -4390.    
       -4891.      -5481.      -6108.      -6710.      -7213.      -7531.      -7563.      -7191.      -6277.      -4662.    
       -2162.       844.3       3742.       3977.       4099.       4026.       3964.       3913.       3872.       3841.    
        3818.       3804.       3797.       3796.       3801.       3810.       3823.       3840.       3858.       3878.    
        3899.       3919.       3938.       3537.       3215.       3360.       3514.       3804.       3656.       3927.    
        3863.       3784.       3707.       3692.       3533.       3560.       3204.       3142.       3577.       3579.    
        3220.       3027.       3273.       3665.       3613.       3541.       3727.       3522.       3301.       3006.    
        3170.       3202.       3630.       3569.       3785.       3897.    
  14   -3213.      -3222.      -3228.      -3231.      -3230.      -3227.      -3221.      -3212.      -3201.      -3192.    
       -3327.      -3640.      -4088.      -4622.      -5180.      -5692.      -6072.      -6218.      -6010.      -5303.    
       -3928.      -1686.       1057.       3692.       3916.       4024.       3951.       3889.       3838.       3798.    
        3767.       3745.       3731.       3724.       3723.       3728.       3738.       3751.       3768.       3786.    
        3806.       3827.       3485.       3211.       3116.       3271.       3499.       3841.       3904.       3843.    
        3757.       3696.       3553.       3766.       3557.       3378.       3225.       3005.       3227.       3393.    
        3361.       3016.       3165.       3466.       3229.       3259.       3293.       3111.       2972.       3260.    
        3516.       3507.       3472.       3772.       3749.       3842.    
  15   -2674.      -2680.      -2682.      -2681.      -2677.      -2669.      -2659.      -2646.      -2629.      -2610.    
       -2589.      -2564.      -2643.      -2904.      -3300.      -3775.      -4260.      -4672.      -4908.      -4845.    
       -4334.      -3194.      -1211.       1270.       3643.       3854.       3948.       3876.       3814.       3764.    
        3724.       3694.       3672.       3658.       3651.       3651.       3656.       3666.       3679.       3696.    
        3714.       3439.       3407.       3379.       3208.       3161.       3482.       3862.       3949.       3765.    
        3603.       3366.       3174.       3322.       3198.       3006.       3013.       2991.       2928.       3013.    
        3302.       3120.       2953.       2998.       2910.       2936.       3017.       3100.       3099.       3446.    
        3817.       3848.       3667.       3700.       3789.       3878.    
  16   -2167.      -2169.      -2168.      -2164.      -2156.      -2144.      -2130.      -2113.      -2092.      -2069.    
       -2042.      -2013.      -1981.      -1946.      -1973.      -2182.      -2526.      -2941.      -3346.      -3641.    
       -3701.      -3372.      -2462.      -735.7       1483.       3594.       3792.       3872.       3800.       3740.    
        3690.       3650.       3620.       3599.       3585.       3579.       3579.       3584.       3594.       3607.    
        3406.       3645.       3671.       3529.       3607.       3370.       3512.       3921.       3972.       3875.    
        3712.       3225.       3188.       3089.       3100.       3342.       3478.       3372.       3072.       2952.    
        2931.       2882.       2826.       2941.       3119.       3197.       3198.       3549.       3342.       3148.    
        3531.       3861.       3763.       3630.       3888.       3829.    
  17   -1689.      -1689.      -1685.      -1678.      -1666.      -1652.      -1634.      -1613.      -1588.      -1560.    
       -1530.      -1496.      -1460.      -1420.      -1378.      -1333.      -1319.      -1475.      -1767.      -2118.    
       -2432.      -2586.      -2420.      -1730.      -260.3       1696.       3544.       3730.       3796.       3725.    
        3665.       3615.       3576.       3546.       3525.       3512.       3506.       3506.       3511.       3395.    
        3534.       3504.       3755.       3891.       3914.       3677.       3675.       3854.       3803.       3580.    
        3329.       3276.       3573.       3468.       3422.       3624.       3625.       3258.       3378.       3301.    
        3024.       2817.       2992.       3299.       3448.       3502.       3269.       3708.       3717.       3211.    
        3483.       3821.       3798.       3663.       3865.       3826.    
  18   -1240.      -1238.      -1232.      -1222.      -1208.      -1191.      -1169.      -1145.      -1117.      -1085.    
       -1051.      -1013.      -972.3      -928.5      -881.8      -832.3      -780.0      -724.9      -679.0      -782.7    
       -1021.      -1304.      -1511.      -1482.      -1001.       215.1       1909.       3495.       3668.       3721.    
        3650.       3590.       3541.       3502.       3473.       3452.       3439.       3433.       3409.       3347.    
        3331.       3404.       3506.       3719.       3975.       3845.       3799.       3660.       3509.       3317.    
        3442.       3575.       3625.       3588.       3730.       3708.       3453.       3529.       3739.       3596.    
        3311.       2862.       3223.       3681.       3767.       3731.       3631.       3840.       3764.       3285.    
        3669.       3848.       3820.       3814.       3751.       3747.    
  19   -819.5      -815.7      -807.7      -795.5      -779.4      -759.4      -735.6      -708.1      -677.0      -642.4    
       -604.3      -562.9      -518.2      -470.4      -419.4      -365.5      -308.6      -248.9      -186.4      -121.2    
       -54.33      -104.7      -288.8      -495.1      -565.4      -275.3       690.5       2122.       3445.       3606.    
        3645.       3574.       3515.       3467.       3428.       3399.       3379.       3466.       3242.       3366.    
        3343.       3435.       3603.       3853.       3832.       3614.       3813.       3768.       3610.       3456.    
        3762.       3843.       3718.       3661.       3773.       3599.       3410.       3579.       3839.       3619.    
        3250.       2937.       3303.       3585.       3731.       3894.       3827.       3880.       3668.       3313.    
        3779.       3823.       3895.       3836.       3795.       3590.    
  20   -425.7      -420.7      -411.3      -397.5      -379.6      -357.6      -331.6      -301.7      -267.9      -230.4    
       -189.3      -144.6      -96.50      -45.01       9.745       67.69       128.7       192.8       259.8       329.7    
        402.4       477.9       556.2       558.8       430.5       316.8       445.3       1166.       2335.       3396.    
        3544.       3569.       3499.       3440.       3392.       3354.       3318.       3329.       3484.       3315.    
        3309.       3390.       3527.       3753.       3902.       3487.       3825.       3904.       3662.       3602.    
        3870.       3622.       3555.       3548.       3635.       3666.       3510.       3722.       3813.       3663.    
        3222.       2938.       3169.       3490.       3691.       3836.       3884.       3783.       3540.       3410.    
        3771.       3846.       3729.       3782.       3803.       3749.    
  21   -57.69      -51.97      -41.65      -26.82      -7.574       15.99       43.77       75.68       111.6       151.5    
        195.2       242.7       293.8       348.5       406.7       468.2       533.0       601.1       672.3       746.5    
        823.7       903.7       986.6       1072.       1161.       1208.       1139.       1156.       1641.       2548.    
        3347.       3483.       3494.       3424.       3366.       3317.       3425.       3484.       3419.       3270.    
        3306.       3441.       3573.       3802.       3689.       3456.       3658.       3733.       3710.       3667.    
        3554.       3383.       3251.       3301.       3431.       3399.       3557.       3736.       3609.       3365.    
        3148.       2930.       3252.       3410.       3519.       3769.       3913.       3741.       3637.       3507.    
        3702.       3778.       3656.       3696.       3875.       3882.    
  22    285.5       291.5       302.2       317.7       337.8       362.4       391.5       424.9       462.6       504.4    
        550.2       600.0       653.7       711.2       772.3       837.0       905.2       976.8       1052.       1130.    
        1211.       1295.       1383.       1473.       1566.       1662.       1761.       1842.       1843.       2117.    
        2761.       3297.       3421.       3418.       3310.       3226.       3200.       3455.       3477.       3312.    
        3362.       3475.       3612.       3707.       3528.       3311.       3500.       3652.       3730.       3685.    
        3644.       3526.       3300.       3181.       3323.       3320.       3496.       3512.       3445.       3271.    
        3135.       2933.       3365.       3537.       3667.       3741.       3921.       3832.       3702.       3674.    
        3716.       3678.       3590.       3508.       3660.       3858.    
  23    605.0       610.7       621.4       637.0       657.5       682.8       712.7       747.1       786.0       829.2    
        876.8       928.4       984.2       1044.       1108.       1175.       1246.       1321.       1399.       1481.    
        1566.       1654.       1745.       1840.       1937.       2038.       2141.       2247.       2356.       2462.    
        2592.       2974.       3248.       3423.       3454.       3334.       3287.       3338.       3447.       3343.    
        3354.       3432.       3588.       3482.       3396.       3158.       3542.       3692.       3580.       3652.    
        3615.       3644.       3393.       3127.       3223.       3379.       3377.       3335.       3269.       3205.    
        3194.       2923.       3339.       3562.       3641.       3742.       3836.       3868.       3734.       3755.    
        3839.       3769.       3619.       3521.       3511.       3791.    
  24    902.4       906.8       916.9       932.3       952.7       978.0       1008.       1043.       1083.       1127.    
        1176.       1229.       1286.       1348.       1414.       1483.       1557.       1634.       1715.       1800.    
        1888.       1980.       2075.       2173.       2275.       2379.       2487.       2598.       2711.       2827.    
        2946.       3068.       3124.       3243.       3475.       3445.       3422.       3480.       3505.       3455.    
        3411.       3463.       3599.       3496.       3187.       3146.       3354.       3389.       3435.       3650.    
        3464.       3534.       3338.       3096.       3239.       3254.       3236.       3293.       3257.       3134.    
        3082.       2891.       3201.       3428.       3624.       3710.       3790.       3814.       3720.       3782.    
        3830.       3789.       3702.       3568.       3515.       3716.    
  25    1190.       1187.       1191.       1204.       1224.       1249.       1279.       1314.       1354.       1399.    
        1449.       1503.       1561.       1624.       1691.       1763.       1838.       1918.       2001.       2089.    
        2180.       2275.       2373.       2475.       2580.       2688.       2800.       2914.       3032.       3153.    
        3276.       3435.       3436.       3295.       3458.       3504.       3525.       3580.       3433.       3305.    
        3281.       3493.       3474.       3343.       3143.       3056.       3123.       3232.       3404.       3570.    
        3427.       3326.       3216.       3032.       3108.       3174.       3244.       3293.       3236.       3260.    
        3250.       2835.       3106.       3441.       3754.       3752.       3811.       3705.       3587.       3683.    
        3809.       3820.       3727.       3598.       3686.       3639.    
  26    1458.       1453.       1455.       1462.       1476.       1498.       1527.       1562.       1602.       1646.    
        1696.       1750.       1810.       1874.       1942.       2015.       2092.       2173.       2258.       2348.    
        2441.       2539.       2640.       2744.       2853.       2965.       3080.       3198.       3320.       3445.    
        3573.       3461.       3662.       3441.       3403.       3234.       3326.       3324.       3143.       3151.    
        3354.       3521.       3509.       3290.       3120.       2951.       3232.       3459.       3495.       3475.    
        3388.       3289.       3102.       2980.       3130.       3251.       3366.       3423.       3454.       3557.    
        3418.       2859.       2871.       3040.       3271.       3333.       3498.       3402.       3348.       3638.    
        3791.       3822.       3721.       3718.       3697.       3564.    
  27    1706.       1699.       1698.       1704.       1715.       1732.       1756.       1786.       1825.       1870.    
        1919.       1974.       2033.       2097.       2166.       2240.       2318.       2401.       2487.       2579.    
        2674.       2773.       2877.       2984.       3095.       3210.       3328.       3450.       3575.       3704.    
        3423.       3525.       3661.       3578.       3349.       3122.       3156.       3152.       3026.       3176.    
        3266.       3537.       3536.       3426.       3150.       2947.       3237.       3592.       3656.       3544.    
        3382.       3160.       2973.       2972.       3194.       3367.       3514.       3612.       3711.       3633.    
        3197.       2802.       2954.       3128.       3026.       3036.       3132.       3307.       3365.       3471.    
        3747.       3810.       3794.       3796.       3635.       3495.    
  28    1936.       1925.       1922.       1925.       1934.       1949.       1970.       1998.       2031.       2071.    
        2119.       2173.       2232.       2296.       2365.       2439.       2518.       2601.       2689.       2782.    
        2879.       2980.       3085.       3194.       3307.       3425.       3546.       3670.       3799.       3931.    
        3375.       3534.       3454.       3427.       3339.       3083.       3003.       2980.       2982.       3084.    
        3280.       3563.       3544.       3298.       3098.       2904.       3146.       3329.       3427.       3325.    
        3194.       3177.       2979.       3014.       3268.       3440.       3583.       3730.       3762.       3490.    
        3050.       2851.       3257.       3417.       3543.       3310.       3524.       3653.       3747.       3450.    
        3661.       3781.       3781.       3616.       3471.       3504.    
  29    2147.       2134.       2127.       2127.       2133.       2146.       2165.       2190.       2221.       2258.    
        2301.       2350.       2408.       2472.       2541.       2614.       2693.       2777.       2865.       2959.    
        3056.       3159.       3265.       3376.       3491.       3610.       3734.       3861.       3992.       3292.    
        3349.       3224.       3252.       3256.       3243.       3136.       2984.       2900.       3082.       3169.    
        3291.       3561.       3651.       3458.       3113.       2906.       2926.       3105.       3185.       3026.    
        3140.       3328.       2976.       2971.       3235.       3439.       3584.       3701.       3734.       3408.    
        2977.       2926.       3542.       3610.       3814.       3591.       3681.       3810.       3850.       3749.    
        3927.       3904.       3829.       3675.       3586.       3620.    
  30    2342.       2325.       2314.       2311.       2314.       2323.       2339.       2362.       2391.       2426.    
        2467.       2514.       2567.       2626.       2693.       2766.       2845.       2928.       3017.       3110.    
        3208.       3311.       3419.       3531.       3647.       3768.       3893.       4022.       4155.       3124.    
        2949.       3029.       3078.       3112.       3131.       3033.       2917.       2930.       3078.       3161.    
        3210.       3388.       3446.       3380.       3243.       3076.       2778.       2965.       2933.       2887.    
        3136.       3372.       2982.       3061.       3423.       3437.       3585.       3669.       3409.       3167.    
        2858.       2868.       3462.       3840.       3900.       3905.       3737.       3796.       3876.       3904.    
        3909.       3766.       3800.       3809.       3708.       3743.    
  31    2521.       2500.       2485.       2477.       2477.       2483.       2495.       2515.       2541.       2573.    
        2612.       2657.       2708.       2765.       2828.       2897.       2973.       3056.       3144.       3237.    
        3335.       3438.       3546.       3659.       3776.       3898.       4024.       4155.       3162.       2843.    
        2845.       2905.       3011.       3070.       3115.       2956.       2845.       2890.       3058.       3033.    
        3080.       3214.       3236.       3349.       3282.       3113.       2795.       2756.       2796.       2793.    
        2993.       3187.       2877.       3329.       3724.       3588.       3604.       3674.       3293.       2760.    
        2725.       2979.       3323.       3498.       3530.       3697.       3860.       3927.       3864.       3717.    
        3788.       3614.       3639.       3749.       3879.       3825.    
  32    2686.       2660.       2640.       2628.       2623.       2625.       2634.       2650.       2673.       2702.    
        2738.       2780.       2828.       2883.       2944.       3011.       3084.       3163.       3248.       3341.    
        3439.       3542.       3649.       3762.       3880.       4002.       4129.       4261.       2970.       2928.    
        2968.       3002.       3166.       3138.       3138.       3024.       2841.       2822.       2946.       2934.    
        3056.       3064.       3158.       3222.       3167.       3178.       2993.       2672.       2681.       2792.    
        2901.       2917.       2926.       3453.       3801.       3622.       3368.       3388.       2847.       2744.    
        3049.       3243.       3326.       3400.       3491.       3411.       3501.       3613.       3821.       3786.    
        3503.       3435.       3352.       3518.       3994.       3870.    
  33    2837.       2805.       2781.       2764.       2754.       2752.       2757.       2768.       2787.       2813.    
        2845.       2884.       2930.       2982.       3040.       3105.       3176.       3253.       3336.       3425.    
        3519.       3621.       3729.       3841.       3959.       4082.       4209.       3029.       3071.       3078.    
        3099.       3219.       3233.       3077.       3036.       2966.       2823.       2742.       2779.       2815.    
        2883.       2969.       3081.       3025.       3010.       3045.       3057.       2689.       2625.       2701.    
        2847.       2847.       3102.       3591.       3695.       3718.       3253.       3007.       2678.       2875.    
        3139.       3213.       3357.       3743.       3795.       3740.       3787.       3836.       3891.       3837.    
        3789.       3490.       3258.       3482.       3844.       3881.    
  34    2980.       2940.       2909.       2886.       2871.       2864.       2864.       2871.       2885.       2907.    
        2935.       2971.       3013.       3062.       3117.       3179.       3247.       3322.       3403.       3490.    
        3583.       3681.       3786.       3897.       4015.       4137.       4264.       2903.       2966.       3192.    
        3237.       3198.       3073.       3071.       2924.       2919.       2728.       2769.       2842.       2848.    
        2852.       2870.       2864.       2882.       2914.       2966.       2923.       2650.       2553.       2651.    
        2839.       2800.       3208.       3436.       3698.       3569.       3090.       2636.       2782.       3140.    
        3530.       3620.       3410.       3387.       3709.       3898.       3932.       3872.       3692.       3601.    
        3813.       3640.       3347.       3702.       3830.       3860.    
  35    3016.       3040.       3027.       2997.       2975.       2962.       2957.       2959.       2969.       2985.    
        3010.       3041.       3079.       3124.       3176.       3235.       3300.       3372.       3450.       3534.    
        3625.       3722.       3825.       3933.       4048.       4169.       4296.       3007.       3135.       3197.    
        3162.       3110.       2984.       2995.       2899.       2812.       2740.       2929.       2989.       3023.    
        3043.       3051.       3072.       3114.       3087.       2989.       2763.       2645.       2494.       2610.    
        2672.       2755.       3104.       3453.       3577.       3400.       2982.       2571.       2873.       3274.    
        3456.       3484.       3822.       3620.       3382.       3588.       3891.       3902.       3808.       3576.    
        3429.       3624.       3297.       4043.       3788.       3810.    
  36    2869.       2953.       3019.       3060.       3068.       3050.       3037.       3033.       3037.       3049.    
        3069.       3095.       3129.       3170.       3218.       3273.       3334.       3403.       3478.       3559.    
        3647.       3742.       3842.       3949.       4062.       4181.       3200.       3126.       3194.       3082.    
        2999.       2994.       2986.       2862.       2874.       2750.       2741.       2830.       2921.       2992.    
        3123.       3182.       3147.       3188.       3188.       3121.       2759.       2729.       2574.       2865.    
        2964.       3032.       3108.       3062.       3082.       3032.       2637.       2622.       2949.       3416.    
        3738.       3864.       3676.       3807.       3622.       3655.       3819.       3715.       3691.       3577.    
        3516.       3671.       3185.       3891.       3720.       3734.    
  37    2650.       2748.       2846.       2938.       3017.       3074.       3101.       3097.       3095.       3100.    
        3114.       3135.       3164.       3200.       3244.       3294.       3352.       3417.       3488.       3566.    
        3651.       3742.       3840.       3945.       4055.       4172.       3124.       3231.       3195.       3016.    
        2908.       2888.       2875.       2812.       2759.       2700.       2793.       2924.       3003.       3055.    
        3152.       3142.       3113.       3109.       3154.       2939.       2692.       2742.       2585.       2859.    
        2984.       2799.       2557.       2550.       2589.       2599.       2589.       2687.       2971.       3346.    
        3620.       3809.       3859.       3990.       3881.       3943.       3812.       3630.       3392.       3213.    
        3455.       3577.       3192.       3632.       3631.       3636.    
  38    2490.       2563.       2644.       2734.       2828.       2922.       3009.       3081.       3127.       3139.    
        3147.       3162.       3185.       3216.       3255.       3301.       3354.       3414.       3481.       3556.    
        3637.       3725.       3820.       3921.       4029.       3085.       3120.       3223.       3203.       3092.    
        3005.       2944.       2800.       2794.       2735.       2711.       2862.       2929.       2926.       2982.    
        3101.       3220.       3173.       3090.       2962.       2712.       2672.       2746.       2639.       2523.    
        2546.       2457.       2683.       2756.       2785.       2822.       3026.       3074.       2888.       3110.    
        3465.       3598.       3892.       3956.       3784.       4047.       3962.       3829.       3713.       2956.    
        3214.       3348.       3530.       3534.       3523.       3518.    
  39    2381.       2449.       2518.       2589.       2660.       2735.       2820.       2911.       3000.       3081.    
        3145.       3176.       3195.       3220.       3252.       3293.       3341.       3396.       3459.       3529.    
        3606.       3690.       3781.       3879.       3983.       3088.       3172.       3271.       3192.       2985.    
        2957.       2932.       2830.       2710.       2652.       2773.       2823.       2863.       2987.       3094.    
        3194.       3181.       3172.       3184.       2923.       2663.       2618.       2618.       2591.       2417.    
        2607.       2813.       3110.       3275.       3404.       3347.       3461.       3436.       3257.       3049.    
        3308.       3611.       3689.       3489.       3588.       3988.       3837.       3876.       3758.       2805.    
        3049.       3101.       3939.       3420.       3399.       3383.    
  40    2286.       2350.       2415.       2482.       2549.       2618.       2687.       2758.       2830.       2909.    
        2995.       3081.       3155.       3206.       3237.       3272.       3314.       3364.       3422.       3487.    
        3560.       3640.       3726.       3820.       2982.       3015.       3111.       3250.       3137.       2971.    
        2860.       2861.       2811.       2698.       2627.       2721.       2821.       2969.       3058.       3054.    
        3160.       3161.       3109.       3161.       2891.       2631.       2562.       2553.       2456.       2602.    
        2950.       3076.       3197.       3354.       3487.       3605.       3738.       3652.       3509.       3362.    
        3256.       3307.       3364.       3521.       3722.       3858.       3876.       3539.       3818.       2758.    
        3035.       2884.       3441.       3294.       3261.       3234.    
  41    2202.       2263.       2325.       2388.       2452.       2517.       2582.       2649.       2717.       2785.    
        2855.       2926.       3000.       3082.       3163.       3229.       3272.       3319.       3372.       3431.    
        3499.       3574.       3656.       3745.       3169.       3118.       3154.       3268.       3092.       2904.    
        2932.       2839.       2787.       2654.       2673.       2830.       2919.       2987.       2976.       2958.    
        3087.       3118.       3088.       3135.       2835.       2597.       2522.       2544.       2495.       2519.    
        2924.       3188.       3325.       3344.       3453.       3588.       3690.       3771.       3610.       3591.    
        3670.       3744.       3726.       3844.       3780.       3674.       3869.       3548.       3301.       2811.    
        2975.       2908.       3211.       3159.       3113.       3075.    
  42    2129.       2187.       2246.       2306.       2367.       2428.       2491.       2554.       2618.       2683.    
        2749.       2816.       2884.       2953.       3023.       3094.       3172.       3247.       3304.       3361.    
        3424.       3494.       3571.       3206.       3154.       3317.       3289.       3225.       3084.       3015.    
        2888.       2807.       2736.       2658.       2671.       2749.       2871.       2872.       2879.       2922.    
        3018.       3013.       3026.       3095.       2733.       2563.       2530.       2565.       2340.       2572.    
        3033.       3232.       3364.       3423.       3528.       3558.       3659.       3777.       3741.       3697.    
        3709.       3756.       3760.       3764.       3822.       3569.       3562.       3601.       3246.       2961.    
        2941.       3410.       3081.       3016.       2958.       2907.    
  43    2065.       2121.       2177.       2235.       2292.       2351.       2410.       2470.       2531.       2593.    
        2655.       2719.       2783.       2848.       2915.       2982.       3050.       3120.       3190.       3263.    
        3332.       3398.       3471.       3336.       3205.       3358.       3405.       3324.       3290.       3087.    
        2970.       2885.       2776.       2643.       2575.       2810.       2862.       2767.       2833.       2973.    
        2949.       2958.       3057.       3010.       2610.       2532.       2532.       2598.       2370.       2579.    
        2870.       3043.       3171.       3356.       3453.       3528.       3630.       3666.       3736.       3647.    
        3594.       3674.       3614.       3765.       3845.       3818.       3508.       3266.       3162.       3172.    
        2979.       3604.       2949.       2870.       2798.       2734.    
  44    2009.       2063.       2117.       2172.       2227.       2283.       2340.       2397.       2455.       2514.    
        2574.       2634.       2695.       2757.       2820.       2883.       2948.       3013.       3080.       3148.    
        3216.       3286.       3357.       3432.       3342.       3373.       3437.       3315.       3157.       3098.    
        2944.       2900.       2749.       2662.       2532.       2735.       2699.       2815.       2894.       2965.    
        2866.       2956.       3030.       3012.       2575.       2496.       2542.       2597.       2363.       2556.    
        3026.       3191.       3259.       3352.       3458.       3533.       3509.       3610.       3637.       3650.    
        3495.       3614.       3545.       3708.       3710.       3783.       3643.       3485.       3650.       3357.    
        3112.       3290.       2817.       2724.       2637.       2558.    
  45    1961.       2012.       2065.       2117.       2171.       2224.       2279.       2334.       2389.       2445.    
        2502.       2560.       2618.       2677.       2737.       2797.       2858.       2920.       2983.       3047.    
        3112.       3178.       3190.       3349.       3425.       3404.       3348.       3084.       2939.       2957.    
        2962.       2891.       2856.       2753.       2494.       2616.       2758.       2851.       2872.       2975.    
        2822.       2842.       2942.       2974.       2598.       2467.       2513.       2539.       2359.       2721.    
        3005.       3156.       3282.       3426.       3384.       3377.       3479.       3598.       3551.       3586.    
        3425.       3572.       3495.       3620.       3613.       3672.       3701.       3823.       3714.       3480.    
        3260.       2805.       2688.       2579.       2478.       2384.    
  46    1918.       1968.       2019.       2070.       2121.       2173.       2225.       2278.       2331.       2385.    
        2440.       2495.       2551.       2607.       2664.       2722.       2780.       2839.       2899.       2960.    
        3021.       3084.       3184.       3258.       3395.       3484.       3309.       3100.       2874.       2785.    
        2847.       2839.       2779.       2766.       2475.       2580.       2731.       2776.       2874.       2869.    
        2773.       2894.       3014.       2970.       2586.       2472.       2469.       2442.       2383.       2847.    
        2970.       3080.       3224.       3309.       3199.       3270.       3492.       3559.       3460.       3471.    
        3386.       3569.       3452.       3537.       3551.       3579.       3769.       3856.       3554.       3452.    
        3135.       2698.       2565.       2440.       2323.       2213.    
  47    1881.       1930.       1979.       2028.       2078.       2128.       2179.       2230.       2281.       2333.    
        2385.       2438.       2492.       2546.       2600.       2656.       2711.       2768.       2825.       2883.    
        2941.       3001.       2882.       3103.       3298.       3531.       3350.       3055.       2874.       2779.    
        2680.       2629.       2583.       2578.       2480.       2413.       2543.       2698.       2813.       2661.    
        2705.       2882.       2972.       2906.       2497.       2430.       2398.       2380.       2370.       2682.    
        2874.       3051.       3119.       3161.       3108.       3270.       3451.       3506.       3383.       3346.    
        3512.       3540.       3344.       3331.       3416.       3599.       3729.       3839.       3532.       3261.    
        3071.       2600.       2451.       2309.       2175.       2049.    
  48    1849.       1897.       1944.       1992.       2040.       2089.       2138.       2187.       2237.       2287.    
        2338.       2389.       2440.       2492.       2545.       2598.       2651.       2706.       2760.       2816.    
        2872.       2962.       3031.       3054.       3386.       3525.       3324.       3134.       2922.       2821.    
        2680.       2652.       2652.       2578.       2598.       2552.       2392.       2589.       2619.       2572.    
        2790.       2853.       2949.       2811.       2419.       2372.       2363.       2305.       2469.       2650.    
        2773.       2879.       2961.       2994.       3162.       3304.       3440.       3371.       3277.       3411.    
        3538.       3408.       3270.       3426.       3622.       3625.       3698.       3606.       3382.       3016.    
        2772.       2515.       2348.       2189.       2038.       1894.    
  49    1822.       1868.       1914.       1961.       2008.       2055.       2103.       2151.       2199.       2247.    
        2296.       2346.       2396.       2446.       2497.       2548.       2599.       2651.       2704.       2757.    
        2811.       2987.       3162.       3057.       3347.       3560.       3362.       3231.       3024.       2884.    
        2687.       2824.       2709.       2729.       2772.       2604.       2413.       2397.       2436.       2540.    
        2781.       2864.       2931.       2819.       2415.       2297.       2290.       2286.       2463.       2743.    
        2930.       2950.       3044.       3104.       3216.       3414.       3396.       3229.       3230.       3269.    
        3270.       3297.       3527.       3652.       3580.       3424.       3539.       3264.       3196.       2838.    
        2640.       2446.       2260.       2082.       1913.       1752.    
  50    1798.       1843.       1888.       1934.       1979.       2026.       2072.       2119.       2166.       2213.    
        2260.       2308.       2357.       2405.       2454.       2504.       2554.       2604.       2655.       2706.    
        2758.       2995.       3404.       3116.       3406.       3482.       3175.       3000.       2877.       2798.    
        2840.       2871.       2807.       2773.       2715.       2655.       2624.       2386.       2328.       2563.    
        2692.       2862.       2875.       2749.       2350.       2246.       2237.       2312.       2501.       2741.    
        2930.       3098.       3197.       3284.       3395.       3429.       3291.       3123.       3028.       3046.    
        3296.       3481.       3598.       3697.       3559.       3432.       3198.       3194.       2949.       2867.    
        2597.       2402.       2203.       2001.       1805.       1626.    
  51    1777.       1821.       1866.       1910.       1955.       2000.       2045.       2091.       2137.       2183.    
        2229.       2276.       2323.       2370.       2418.       2466.       2514.       2563.       2612.       2661.    
        2711.       2924.       3345.       3183.       3493.       3549.       3373.       3187.       3142.       2980.    
        2993.       2965.       2782.       2682.       2603.       2543.       2507.       2512.       2354.       2385.    
        2576.       2710.       2801.       2651.       2280.       2211.       2225.       2333.       2536.       2733.    
        2865.       2963.       3123.       3284.       3401.       3301.       3141.       2992.       2907.       3302.    
        3477.       3546.       3631.       3649.       3462.       3354.       3265.       3125.       2906.       2719.    
        2554.       2362.       2168.       1970.       1769.       1565.    
  52    1759.       1803.       1846.       1890.       1934.       1978.       2022.       2067.       2112.       2157.    
        2202.       2248.       2293.       2340.       2386.       2433.       2480.       2527.       2574.       2622.    
        2765.       2944.       3330.       3346.       3579.       3511.       3489.       3393.       3404.       3245.    
        3052.       2877.       2801.       2796.       2708.       2633.       2696.       2599.       2474.       2287.    
        2434.       2589.       2765.       2544.       2273.       2164.       2201.       2321.       2516.       2740.    
        2894.       3004.       3133.       3315.       3364.       3184.       2968.       2813.       3134.       3284.    
        3414.       3527.       3635.       3529.       3432.       3143.       3197.       2905.       2953.       2694.    
        2509.       2321.       2131.       1937.       1740.       1541.    
  53    1744.       1787.       1830.       1873.       1916.       1959.       2003.       2046.       2090.       2134.    
        2179.       2223.       2268.       2313.       2358.       2404.       2450.       2496.       2542.       2589.    
        2837.       2903.       3465.       3636.       3480.       3292.       3468.       3580.       3387.       3122.    
        3060.       3035.       3013.       2862.       2789.       2787.       2790.       2711.       2525.       2299.    
        2351.       2566.       2744.       2606.       2303.       2110.       2111.       2286.       2490.       2701.    
        2938.       3151.       3250.       3290.       3226.       3007.       2790.       2781.       3179.       3320.    
        3426.       3553.       3569.       3526.       3313.       3159.       2921.       2900.       2741.       2644.    
        2463.       2279.       2093.       1903.       1710.       1514.    
  54    1731.       1773.       1815.       1858.       1900.       1943.       1986.       2029.       2072.       2115.    
        2159.       2202.       2246.       2290.       2334.       2379.       2424.       2469.       2514.       2559.    
        2885.       3235.       3343.       3384.       3190.       3424.       3549.       3383.       3121.       3051.    
        2944.       3114.       3150.       3035.       2922.       2848.       2759.       2696.       2609.       2360.    
        2281.       2524.       2665.       2558.       2258.       2058.       2125.       2320.       2511.       2712.    
        3055.       3143.       3199.       3206.       3028.       2776.       2656.       2876.       3171.       3303.    
        3444.       3506.       3316.       3359.       3125.       3073.       2834.       2854.       2767.       2593.    
        2416.       2236.       2053.       1868.       1679.       1487.    
  55    1720.       1762.       1803.       1845.       1887.       1929.       1971.       2014.       2056.       2099.    
        2141.       2184.       2227.       2271.       2314.       2358.       2401.       2445.       2490.       2558.    
        2917.       3110.       3212.       3089.       3273.       3588.       3643.       3291.       2947.       2887.    
        2859.       3079.       3180.       3059.       2854.       2743.       2664.       2583.       2510.       2484.    
        2212.       2390.       2653.       2499.       2193.       2033.       2116.       2337.       2537.       2819.    
        2948.       3037.       3189.       3096.       2919.       2629.       2642.       2899.       3105.       3271.    
        3461.       3449.       3299.       3068.       2927.       2804.       2887.       2720.       2712.       2542.    
        2369.       2192.       2013.       1831.       1646.       1458.    
  56    1711.       1752.       1793.       1835.       1876.       1917.       1959.       2001.       2043.       2084.    
        2127.       2169.       2211.       2254.       2296.       2339.       2382.       2425.       2469.       2658.    
        2938.       3166.       3106.       3009.       3164.       3378.       3554.       3190.       2994.       2747.    
        2885.       3046.       3118.       3092.       2944.       2727.       2613.       2517.       2453.       2364.    
        2187.       2343.       2579.       2290.       2069.       2015.       2082.       2355.       2675.       2763.    
        2833.       2995.       3146.       3103.       2794.       2546.       2670.       2911.       3113.       3370.    
        3396.       3485.       3413.       3225.       2977.       2842.       2833.       2773.       2656.       2490.    
        2320.       2148.       1972.       1794.       1613.       1429.    
  57    1703.       1744.       1785.       1826.       1866.       1908.       1949.       1990.       2031.       2072.    
        2114.       2156.       2197.       2239.       2281.       2323.       2366.       2408.       2451.       2733.    
        2853.       2892.       2922.       3139.       3266.       3349.       3404.       3223.       2960.       2717.    
        2801.       2898.       3003.       2975.       3134.       2891.       2670.       2588.       2570.       2460.    
        2174.       2166.       2267.       2061.       2012.       2010.       2149.       2369.       2531.       2604.    
        2763.       2962.       3120.       3065.       2803.       2517.       2683.       2952.       3140.       3272.    
        3235.       3373.       3446.       3183.       2866.       2858.       2670.       2760.       2600.       2437.    
        2271.       2102.       1931.       1756.       1579.       1399.    
  58    1697.       1737.       1778.       1818.       1859.       1899.       1940.       1981.       2021.       2062.    
        2103.       2144.       2186.       2227.       2268.       2310.       2352.       2393.       2435.       2777.    
        2737.       2850.       3173.       3168.       3441.       3141.       3043.       3328.       3150.       2882.    
        2646.       2772.       2836.       2881.       3019.       2907.       2808.       2610.       2475.       2390.    
        2177.       2021.       2002.       1990.       2000.       2126.       2405.       2518.       2718.       2778.    
        2858.       2992.       3108.       3050.       2801.       2525.       2656.       2896.       3055.       3065.    
        3117.       3170.       3224.       3038.       2883.       2756.       2718.       2699.       2543.       2384.    
        2222.       2057.       1889.       1718.       1544.       1368.    
  59    1692.       1732.       1772.       1812.       1852.       1892.       1933.       1973.       2013.       2054.    
        2094.       2135.       2176.       2217.       2257.       2298.       2340.       2381.       2493.       2797.    
        2829.       3090.       3395.       3438.       3593.       3279.       2877.       3229.       3190.       2965.    
        2706.       2585.       2670.       2817.       2982.       2796.       2850.       2699.       2542.       2328.    
        2097.       1988.       1982.       1995.       2128.       2427.       2631.       2675.       2750.       2958.    
        2974.       3083.       3052.       2914.       2808.       2569.       2558.       2819.       2844.       2869.    
        2915.       2883.       2942.       2866.       2817.       2599.       2789.       2639.       2486.       2330.    
        2172.       2010.       1846.       1679.       1509.       1336.    
  60    1688.       1728.       1767.       1807.       1847.       1887.       1927.       1967.       2007.       2047.    
        2087.       2127.       2168.       2208.       2248.       2289.       2329.       2370.       2587.       2796.    
        2861.       3069.       3393.       3519.       3391.       3182.       2797.       2949.       2925.       2947.    
        2765.       2548.       2635.       2857.       2994.       2716.       2816.       2594.       2410.       2249.    
        2034.       1977.       1987.       2040.       2268.       2381.       2576.       2724.       2825.       2985.    
        3094.       3071.       3000.       2898.       2765.       2612.       2483.       2655.       2728.       2835.    
        2754.       2732.       2846.       2857.       2639.       2636.       2725.       2578.       2429.       2277.    
        2122.       1964.       1803.       1640.       1473.       1304.    
  61    1685.       1724.       1764.       1803.       1843.       1882.       1922.       1962.       2001.       2041.    
        2081.       2121.       2161.       2201.       2241.       2281.       2321.       2361.       2642.       2767.    
        3022.       3258.       3412.       3264.       3166.       2922.       2755.       2738.       2803.       2892.    
        2770.       2526.       2539.       2781.       2911.       2719.       2623.       2547.       2292.       2164.    
        1991.       1978.       2065.       2289.       2548.       2524.       2531.       2647.       2771.       2902.    
        3034.       2919.       2925.       2989.       2943.       2756.       2484.       2589.       2755.       2799.    
        2678.       2660.       2710.       2715.       2514.       2742.       2661.       2518.       2372.       2223.    
        2072.       1917.       1760.       1600.       1437.       1272.    
  62    1683.       1722.       1761.       1800.       1840.       1879.       1918.       1958.       1997.       2037.    
        2076.       2116.       2155.       2195.       2235.       2274.       2314.       2364.       2660.       2706.    
        2970.       3147.       3134.       3093.       2971.       2746.       2725.       2647.       2666.       2739.    
        2689.       2544.       2439.       2647.       2816.       2843.       2660.       2509.       2234.       2096.    
        1972.       2040.       2347.       2413.       2548.       2649.       2775.       2780.       2861.       2880.    
        2920.       2840.       2815.       2892.       2825.       2741.       2480.       2578.       2685.       2798.    
        2675.       2530.       2590.       2507.       2541.       2734.       2597.       2457.       2315.       2169.    
        2021.       1870.       1717.       1560.       1401.       1239.    
  63    1681.       1720.       1759.       1798.       1837.       1876.       1916.       1955.       1994.       2033.    
        2072.       2112.       2151.       2190.       2229.       2269.       2308.       2455.       2641.       2616.    
        2705.       2832.       2891.       3109.       2914.       2770.       2629.       2601.       2632.       2733.    
        2717.       2672.       2424.       2572.       2680.       2747.       2756.       2456.       2197.       2051.    
        1977.       2213.       2405.       2536.       2623.       2838.       2893.       2913.       2780.       2817.    
        2814.       2763.       2716.       2835.       2680.       2692.       2510.       2603.       2761.       2765.    
        2609.       2480.       2514.       2423.       2650.       2667.       2534.       2397.       2258.       2116.    
        1971.       1824.       1674.       1521.       1365.       1206.    
  64    1680.       1719.       1758.       1797.       1836.       1875.       1914.       1952.       1991.       2030.    
        2069.       2108.       2147.       2186.       2226.       2265.       2304.       2522.       2579.       2607.    
        2625.       2665.       2900.       3051.       2864.       2801.       2747.       2539.       2513.       2552.    
        2530.       2490.       2396.       2418.       2533.       2570.       2639.       2512.       2174.       2022.    
        2004.       2306.       2476.       2657.       2731.       2836.       2751.       2776.       2673.       2740.    
        2768.       2667.       2623.       2657.       2624.       2682.       2471.       2708.       2894.       2831.    
        2607.       2442.       2391.       2440.       2729.       2601.       2471.       2337.       2202.       2063.    
        1922.       1777.       1631.       1481.       1328.       1173.    
  65    1680.       1719.       1757.       1796.       1835.       1874.       1912.       1951.       1990.       2028.    
        2067.       2106.       2145.       2184.       2222.       2261.       2300.       2545.       2459.       2648.    
        2623.       2595.       2729.       2786.       2692.       2620.       2558.       2455.       2379.       2421.    
        2390.       2359.       2310.       2350.       2411.       2458.       2517.       2299.       2124.       1981.    
        2089.       2440.       2558.       2671.       2869.       2895.       2738.       2641.       2592.       2607.    
        2742.       2630.       2506.       2582.       2526.       2512.       2524.       2720.       2743.       2771.    
        2535.       2472.       2331.       2531.       2660.       2535.       2408.       2278.       2146.       2010.    
        1872.       1731.       1588.       1441.       1292.       1141.    
  66    1680.       1719.       1757.       1796.       1835.       1873.       1912.       1950.       1989.       2027.    
        2066.       2104.       2143.       2182.       2220.       2259.       2341.       2523.       2291.       2604.    
        2605.       2567.       2633.       2604.       2547.       2453.       2357.       2329.       2337.       2313.    
        2332.       2277.       2278.       2216.       2255.       2338.       2365.       2292.       2105.       1974.    
        2163.       2461.       2692.       2783.       2738.       2779.       2789.       2702.       2552.       2479.    
        2621.       2623.       2474.       2432.       2412.       2405.       2552.       2604.       2586.       2647.    
        2476.       2426.       2338.       2630.       2592.       2470.       2346.       2220.       2090.       1958.    
        1823.       1686.       1545.       1402.       1257.       1108.    
  67    1681.       1719.       1758.       1796.       1835.       1873.       1911.       1950.       1988.       2027.    
        2065.       2103.       2142.       2180.       2219.       2257.       2416.       2447.       2704.       2570.    
        2572.       2536.       2567.       2671.       2618.       2443.       2321.       2264.       2288.       2326.    
        2270.       2251.       2297.       2283.       2178.       2161.       2156.       2174.       2091.       1972.    
        2151.       2578.       2700.       2676.       2621.       2641.       2640.       2561.       2512.       2402.    
        2441.       2374.       2347.       2343.       2382.       2435.       2408.       2433.       2459.       2461.    
        2402.       2260.       2410.       2640.       2525.       2406.       2286.       2162.       2036.       1907.    
        1775.       1641.       1504.       1364.       1221.       1076.    
  68    1682.       1720.       1759.       1797.       1835.       1874.       1912.       1950.       1988.       2027.    
        2065.       2103.       2141.       2180.       2218.       2256.       2449.       2305.       2764.       2572.    
        2549.       2516.       2564.       2710.       2645.       2534.       2336.       2234.       2256.       2447.    
        2260.       2228.       2343.       2265.       2209.       2096.       2251.       2405.       2237.       1970.    
        2130.       2521.       2548.       2544.       2503.       2489.       2457.       2389.       2342.       2312.    
        2296.       2332.       2342.       2442.       2533.       2598.       2479.       2328.       2347.       2411.    
        2350.       2246.       2528.       2571.       2459.       2343.       2226.       2105.       1982.       1856.    
        1727.       1596.       1462.       1326.       1187.       1045.    
  69    1684.       1722.       1760.       1798.       1836.       1874.       1913.       1951.       1989.       2027.    
        2065.       2103.       2141.       2179.       2218.       2259.       2432.       2123.       2475.       2538.    
        2622.       2505.       2531.       2631.       2618.       2568.       2477.       2326.       2220.       2380.    
        2323.       2249.       2501.       2245.       2170.       2099.       2241.       2314.       2199.       1965.    
        2084.       2367.       2374.       2382.       2368.       2341.       2288.       2253.       2250.       2252.    
        2299.       2420.       2444.       2459.       2392.       2384.       2486.       2374.       2235.       2300.    
        2358.       2295.       2611.       2504.       2394.       2282.       2167.       2049.       1929.       1806.    
        1681.       1553.       1422.       1289.       1153.       1014.    
  70    1685.       1723.       1762.       1800.       1838.       1876.       1914.       1952.       1990.       2028.    
        2066.       2104.       2142.       2180.       2218.       2323.       2358.       2757.       2485.       2503.    
        2601.       2572.       2474.       2505.       2495.       2454.       2435.       2395.       2283.       2213.    
        2249.       2235.       2446.       2250.       2146.       2080.       2096.       2077.       1976.       1967.    
        2043.       2196.       2218.       2253.       2256.       2234.       2223.       2320.       2419.       2412.    
        2481.       2573.       2555.       2528.       2464.       2371.       2311.       2347.       2264.       2292.    
        2193.       2395.       2541.       2437.       2330.       2221.       2109.       1994.       1877.       1758.    
        1635.       1510.       1383.       1252.       1119.       983.7    
  71    1687.       1725.       1763.       1801.       1839.       1877.       1915.       1953.       1991.       2029.    
        2067.       2105.       2143.       2181.       2218.       2366.       2217.       2854.       2493.       2469.    
        2484.       2487.       2440.       2462.       2390.       2381.       2350.       2320.       2291.       2285.    
        2200.       2202.       2384.       2278.       2169.       2065.       2007.       1982.       1989.       2026.    
        2097.       2195.       2230.       2260.       2197.       2216.       2355.       2419.       2433.       2432.    
        2408.       2452.       2418.       2378.       2344.       2350.       2369.       2240.       2252.       2295.    
        2198.       2474.       2473.       2372.       2268.       2162.       2053.       1941.       1827.       1710.    
        1591.       1469.       1344.       1217.       1087.       954.4    
  72    1690.       1728.       1766.       1803.       1841.       1879.       1917.       1955.       1993.       2031.    
        2068.       2106.       2144.       2182.       2220.       2359.       2038.       2379.       2461.       2439.    
        2419.       2432.       2418.       2447.       2404.       2314.       2308.       2258.       2232.       2184.    
        2181.       2136.       2257.       2217.       2116.       2041.       1981.       2011.       2068.       2115.    
        2256.       2277.       2215.       2183.       2211.       2284.       2323.       2327.       2313.       2316.    
        2354.       2394.       2398.       2385.       2354.       2336.       2335.       2172.       2255.       2209.    
        2268.       2503.       2407.       2309.       2207.       2104.       1998.       1889.       1778.       1664.    
        1547.       1428.       1307.       1182.       1056.       926.2    
  73    1692.       1730.       1768.       1806.       1844.       1881.       1919.       1957.       1995.       2033.    
        2070.       2108.       2146.       2183.       2244.       2295.       2756.       2422.       2425.       2414.    
        2400.       2402.       2395.       2430.       2393.       2308.       2252.       2224.       2189.       2261.    
        2251.       2099.       2133.       2106.       2056.       1998.       2002.       2062.       2128.       2214.    
        2257.       2315.       2229.       2149.       2253.       2346.       2358.       2301.       2267.       2293.    
        2317.       2342.       2336.       2352.       2362.       2421.       2298.       2204.       2256.       2149.    
        2373.       2436.       2343.       2247.       2149.       2048.       1944.       1838.       1730.       1619.    
        1505.       1389.       1271.       1149.       1025.       899.0    
  74    1695.       1733.       1770.       1808.       1846.       1884.       1922.       1959.       1997.       2035.    
        2072.       2110.       2148.       2185.       2292.       2166.       2920.       2414.       2392.       2383.    
        2372.       2375.       2376.       2407.       2377.       2294.       2246.       2218.       2209.       2266.    
        2264.       2216.       2087.       2087.       2053.       1977.       2005.       2116.       2155.       2258.    
        2308.       2261.       2200.       2141.       2230.       2256.       2257.       2226.       2233.       2250.    
        2263.       2286.       2306.       2318.       2307.       2375.       2224.       2243.       2180.       2165.    
        2459.       2371.       2280.       2187.       2091.       1993.       1893.       1790.       1684.       1576.    
        1465.       1352.       1236.       1118.       996.6       873.1    
  75    1698.       1735.       1773.       1811.       1849.       1886.       1924.       1962.       1999.       2037.    
        2075.       2112.       2150.       2187.       2297.       1996.       2309.       2386.       2363.       2348.    
        2347.       2341.       2363.       2383.       2359.       2275.       2240.       2219.       2233.       2250.    
        2230.       2160.       2243.       2270.       2205.       2069.       2022.       2089.       2156.       2279.    
        2225.       2175.       2168.       2135.       2143.       2190.       2190.       2171.       2199.       2208.    
        2235.       2245.       2263.       2306.       2290.       2340.       2176.       2227.       2118.       2245.    
        2393.       2307.       2219.       2129.       2036.       1941.       1843.       1742.       1640.       1534.    
        1426.       1316.       1203.       1087.       969.2       848.5    
  76    1701.       1738.       1776.       1814.       1852.       1889.       1927.       1964.       2002.       2040.    
        2077.       2115.       2152.       2190.       2246.       2697.       2372.       2352.       2340.       2323.    
        2308.       2324.       2353.       2360.       2320.       2249.       2212.       2206.       2213.       2198.    
        2168.       2202.       2208.       2159.       2102.       2021.       2008.       2105.       2207.       2208.    
        2149.       2142.       2154.       2136.       2102.       2128.       2132.       2148.       2181.       2203.    
        2208.       2253.       2234.       2254.       2274.       2285.       2138.       2216.       2114.       2331.    
        2329.       2246.       2161.       2073.       1983.       1890.       1795.       1697.       1597.       1494.    
        1389.       1281.       1171.       1059.       943.3       825.5    
  77    1704.       1741.       1779.       1817.       1855.       1892.       1930.       1967.       2005.       2042.    
        2080.       2117.       2155.       2227.       2133.       2963.       2332.       2319.       2307.       2301.    
        2301.       2318.       2329.       2337.       2275.       2226.       2196.       2178.       2166.       2159.    
        2155.       2144.       2101.       2116.       2110.       2016.       1965.       2081.       2134.       2127.    
        2094.       2102.       2134.       2123.       2089.       2084.       2103.       2118.       2143.       2187.    
        2180.       2239.       2182.       2198.       2239.       2248.       2181.       2109.       2137.       2346.    
        2268.       2188.       2105.       2020.       1932.       1842.       1749.       1654.       1556.       1456.    
        1354.       1249.       1141.       1032.       919.0       804.0    
  78    1707.       1745.       1782.       1820.       1858.       1895.       1933.       1970.       2008.       2045.    
        2083.       2120.       2157.       2242.       1976.       2262.       2312.       2292.       2273.       2281.    
        2290.       2297.       2304.       2310.       2248.       2200.       2169.       2146.       2115.       2095.    
        2072.       2050.       2037.       2131.       2241.       2110.       1968.       2049.       2083.       2069.    
        2055.       2087.       2117.       2103.       2091.       2060.       2075.       2096.       2107.       2166.    
        2168.       2177.       2187.       2242.       2214.       2212.       2181.       2110.       2213.       2285.    
        2209.       2131.       2051.       1968.       1883.       1795.       1705.       1613.       1518.       1421.    
        1321.       1218.       1114.       1006.       896.6       784.3    
  79    1710.       1748.       1786.       1823.       1861.       1898.       1936.       1973.       2011.       2048.    
        2086.       2123.       2160.       2205.       2583.       2332.       2280.       2270.       2251.       2263.    
        2268.       2274.       2279.       2272.       2201.       2179.       2175.       2185.       2158.       2119.    
        2091.       2062.       2031.       2065.       2145.       2141.       1965.       2015.       2042.       2033.    
        2041.       2076.       2093.       2087.       2084.       2058.       2048.       2073.       2108.       2155.    
        2150.       2123.       2159.       2220.       2183.       2175.       2131.       2083.       2297.       2226.    
        2153.       2078.       2000.       1919.       1837.       1751.       1664.       1574.       1482.       1387.    
        1290.       1190.       1088.       983.1       876.0       766.4    
  80    1714.       1752.       1789.       1827.       1864.       1902.       1939.       1977.       2014.       2051.    
        2089.       2126.       2173.       2110.       2984.       2254.       2249.       2237.       2231.       2245.    
        2249.       2253.       2255.       2249.       2224.       2230.       2256.       2327.       2354.       2298.    
        2277.       2221.       2173.       2167.       2058.       2051.       2015.       1957.       2030.       2071.    
        2066.       2066.       2078.       2075.       2070.       2050.       2025.       2049.       2100.       2126.    
        2147.       2121.       2129.       2185.       2144.       2138.       2086.       2111.       2239.       2171.    
        2100.       2027.       1951.       1873.       1793.       1710.       1625.       1537.       1448.       1355.    
        1261.       1163.       1064.       961.9       857.4       750.5    
  81    1717.       1755.       1793.       1830.       1868.       1905.       1943.       1980.       2017.       2055.    
        2092.       2129.       2193.       1967.       2233.       2239.       2223.       2203.       2215.       2220.    
        2237.       2226.       2233.       2232.       2280.       2334.       2336.       2312.       2348.       2298.    
        2284.       2198.       2170.       2108.       2021.       2013.       1996.       1928.       2020.       2064.    
        2071.       2070.       2064.       2056.       2048.       2048.       2013.       2045.       2085.       2092.    
        2130.       2132.       2133.       2110.       2108.       2102.       2102.       2198.       2184.       2118.    
        2049.       1978.       1905.       1829.       1752.       1671.       1589.       1504.       1416.       1326.    
        1234.       1139.       1042.       942.9       841.1       736.7    
  82    1721.       1759.       1796.       1834.       1871.       1909.       1946.       1983.       2021.       2058.    
        2095.       2133.       2169.       2427.       2299.       2209.       2204.       2185.       2199.       2204.    
        2221.       2204.       2219.       2256.       2355.       2412.       2285.       2231.       2222.       2180.    
        2149.       2120.       2098.       2050.       1983.       1994.       1944.       1918.       2001.       2061.    
        2055.       2047.       2052.       2046.       2040.       2039.       2010.       2035.       2065.       2079.    
        2109.       2121.       2148.       2111.       2087.       2073.       2055.       2194.       2132.       2068.    
        2002.       1933.       1862.       1789.       1713.       1635.       1555.       1472.       1387.       1300.    
        1210.       1118.       1023.       926.3       826.9       725.1    
  83    1725.       1762.       1800.       1837.       1875.       1912.       1950.       1987.       2024.       2062.    
        2099.       2136.       2090.       2983.       2212.       2180.       2170.       2167.       2184.       2214.    
        2205.       2197.       2235.       2311.       2414.       2319.       2221.       2170.       2128.       2113.    
        2067.       2041.       2012.       2010.       1954.       1913.       1935.       1994.       2016.       2053.    
        2038.       2034.       2037.       2038.       2037.       2024.       2004.       2035.       2048.       2069.    
        2081.       2098.       2104.       2084.       2080.       2087.       2080.       2143.       2083.       2021.    
        1957.       1891.       1822.       1751.       1678.       1602.       1524.       1444.       1361.       1276.    
        1188.       1099.       1007.       912.1       815.2       715.9    
  84    1728.       1766.       1803.       1841.       1878.       1916.       1953.       1991.       2028.       2065.    
        2102.       2150.       1963.       2220.       2182.       2155.       2137.       2152.       2149.       2201.    
        2189.       2197.       2249.       2391.       2426.       2296.       2220.       2160.       2114.       2078.    
        2037.       2016.       2010.       1966.       1912.       1952.       1990.       1991.       2023.       2033.    
        2026.       2020.       2021.       2019.       2022.       2010.       2005.       2033.       2042.       2049.    
        2060.       2078.       2072.       2064.       2053.       2079.       2150.       2095.       2038.       1978.    
        1916.       1852.       1785.       1716.       1645.       1572.       1496.       1418.       1337.       1255.    
        1170.       1082.       992.6       900.5       806.0       709.2    
  85    1732.       1770.       1807.       1845.       1882.       1919.       1957.       1994.       2031.       2069.    
        2106.       2137.       2245.       2273.       2139.       2139.       2122.       2139.       2162.       2174.    
        2172.       2202.       2241.       2412.       2456.       2312.       2190.       2158.       2096.       2055.    
        2019.       1982.       1971.       1931.       1898.       1961.       1981.       1991.       2024.       2021.    
        2015.       2010.       2013.       2016.       2010.       1993.       1997.       2019.       2015.       2023.    
        2039.       2047.       2034.       2037.       2045.       2028.       2104.       2051.       1995.       1938.    
        1878.       1816.       1751.       1685.       1616.       1544.       1471.       1395.       1317.       1237.    
        1154.       1069.       981.3       891.6       799.5       705.0    
  86    1736.       1773.       1811.       1848.       1886.       1923.       1961.       1998.       2035.       2072.    
        2110.       2073.       2962.       2182.       2111.       2105.       2107.       2108.       2186.       2158.    
        2159.       2159.       2284.       2385.       2414.       2279.       2146.       2163.       2111.       2065.    
        2042.       2019.       1981.       1922.       1884.       1970.       1980.       2010.       2013.       2012.    
        2011.       2021.       2010.       2019.       2015.       1990.       2005.       1999.       1990.       2000.    
        2014.       2024.       2016.       2014.       2024.       2087.       2062.       2010.       1957.       1901.    
        1843.       1783.       1721.       1656.       1590.       1520.       1449.       1375.       1300.       1221.    
        1141.       1058.       972.9       885.5       795.7       703.6    
  87    1740.       1777.       1815.       1852.       1890.       1927.       1964.       2002.       2039.       2076.    
        2115.       1962.       2219.       2144.       2089.       2073.       2093.       2117.       2156.       2140.    
        2163.       2220.       2229.       2311.       2351.       2182.       2066.       2065.       2083.       2048.    
        1999.       1970.       1969.       1903.       1884.       1969.       1973.       2007.       2018.       2021.    
        2022.       2012.       2012.       2013.       2008.       1983.       2004.       1998.       1979.       1987.    
        2000.       2002.       2003.       2003.       2013.       2070.       2023.       1974.       1922.       1868.    
        1812.       1754.       1694.       1632.       1567.       1500.       1431.       1359.       1285.       1209.    
        1131.       1050.       967.5       882.3       794.8       705.0    
  88    1743.       1781.       1818.       1856.       1893.       1931.       1968.       2005.       2043.       2080.    
        2107.       2060.       2250.       2073.       2076.       2061.       2080.       2129.       2110.       2124.    
        2151.       2165.       2189.       2185.       2265.       2211.       2075.       2018.       1997.       1974.    
        1995.       1967.       1918.       1871.       1885.       1961.       1970.       2016.       2022.       2021.    
        2025.       1995.       2017.       2006.       1970.       1987.       2001.       1981.       1982.       1990.    
        2005.       1994.       1995.       2004.       2002.       2033.       1988.       1941.       1891.       1839.    
        1785.       1729.       1671.       1610.       1548.       1483.       1415.       1346.       1274.       1200.    
        1124.       1046.       965.2       882.2       796.9       709.3    
  89    1747.       1785.       1822.       1860.       1897.       1934.       1972.       2009.       2046.       2084.    
        2057.       2922.       2158.       2045.       2042.       2049.       2041.       2158.       2092.       2114.    
        2139.       2153.       2154.       2122.       2237.       2191.       2068.       2034.       2000.       1959.    
        1935.       1917.       1905.       1860.       1892.       1956.       1985.       2009.       1994.       1983.    
        1989.       1971.       1990.       1967.       1968.       1994.       1982.       2002.       2004.       2001.    
        1992.       1985.       1991.       2001.       2042.       2001.       1957.       1912.       1864.       1814.    
        1762.       1708.       1651.       1593.       1532.       1469.       1404.       1337.       1267.       1195.    
        1121.       1045.       966.1       885.3       802.2       716.8    
  90    1751.       1788.       1826.       1863.       1901.       1938.       1975.       2013.       2050.       2087.    
        1960.       2227.       2095.       2025.       2013.       2037.       2081.       2105.       2079.       2118.    
        2130.       2141.       2106.       2085.       2142.       2218.       2174.       2060.       2014.       1981.    
        1960.       1912.       1868.       1865.       1896.       1948.       1968.       1948.       1918.       1922.    
        1935.       1946.       1944.       1952.       1971.       1975.       1986.       2007.       2007.       2000.    
        1991.       1981.       1981.       1986.       2012.       1973.       1931.       1887.       1841.       1793.    
        1743.       1690.       1636.       1579.       1520.       1459.       1396.       1331.       1263.       1193.    
        1121.       1047.       970.4       891.7       810.7       727.5    
  91    1754.       1792.       1830.       1867.       1904.       1942.       1979.       2016.       2054.       2082.    
        1913.       2229.       2025.       2016.       2004.       2003.       2125.       2048.       2068.       2106.    
        2122.       2115.       2063.       2046.       2136.       2264.       2243.       2065.       1989.       1963.    
        1941.       1919.       1859.       1862.       1902.       1945.       1931.       1906.       1963.       1977.    
        1974.       1952.       1971.       1950.       1978.       2003.       2005.       2003.       2003.       1991.    
        1986.       1979.       1975.       2016.       1986.       1949.       1908.       1866.       1822.       1776.    
        1727.       1677.       1624.       1569.       1512.       1453.       1392.       1328.       1263.       1195.    
        1125.       1053.       978.2       901.5       822.6       741.5    
  92    1758.       1796.       1833.       1871.       1908.       1946.       1983.       2020.       2057.       2042.    
        2865.       2138.       1982.       1982.       1995.       2047.       2113.       2011.       2077.       2096.    
        2117.       2055.       2035.       2023.       2163.       2231.       2110.       2034.       1965.       1942.    
        1915.       1897.       1861.       1860.       1919.       1934.       1897.       1965.       1986.       2015.    
        2014.       1992.       2005.       2000.       1996.       2009.       2025.       2020.       2015.       2005.    
        2000.       1980.       1976.       2000.       1965.       1929.       1891.       1850.       1808.       1763.    
        1716.       1668.       1617.       1564.       1508.       1451.       1392.       1330.       1266.       1200.    
        1132.       1062.       989.6       914.9       838.0       758.9    
  93    1762.       1799.       1837.       1874.       1912.       1949.       1986.       2024.       2061.       1958.    
        2237.       2031.       1963.       1955.       1982.       2018.       2051.       2008.       2067.       2090.    
        2105.       2013.       2007.       2000.       2117.       2217.       2108.       2043.       1997.       1975.    
        1914.       1885.       1882.       1853.       1909.       1904.       1925.       2026.       2026.       2041.    
        2040.       2019.       2015.       2023.       2019.       2010.       2016.       2034.       2035.       2022.    
        2004.       1983.       1992.       1981.       1949.       1914.       1877.       1838.       1798.       1755.    
        1710.       1663.       1613.       1562.       1509.       1453.       1396.       1336.       1274.       1210.    
        1144.       1075.       1005.       932.0       857.1       780.0    
  94    1765.       1803.       1840.       1878.       1915.       1953.       1990.       2027.       2062.       1879.    
        2207.       2000.       1958.       1950.       1953.       2112.       1989.       2008.       2060.       2073.    
        2024.       1986.       1985.       1979.       2032.       2186.       2115.       2059.       2075.       2040.    
        1948.       1929.       1904.       1846.       1902.       1884.       1897.       1939.       1987.       2022.    
        2033.       2044.       2035.       2036.       2037.       2031.       2024.       2036.       2050.       2041.    
        2005.       1988.       1997.       1968.       1937.       1904.       1869.       1831.       1792.       1751.    
        1707.       1662.       1614.       1565.       1513.       1459.       1404.       1346.       1285.       1223.    
        1159.       1092.       1024.       952.9       879.9       804.8    
  95    1768.       1806.       1844.       1881.       1919.       1956.       1994.       2031.       2029.       2790.    
        2120.       1926.       1925.       1943.       2001.       2063.       1941.       2022.       2056.       2087.    
        1972.       1973.       1963.       1968.       2006.       2144.       2221.       2113.       2024.       2044.    
        1978.       1926.       1879.       1840.       1906.       1871.       1925.       1968.       1993.       2005.    
        2016.       2033.       2063.       2067.       2073.       2059.       2041.       2046.       2041.       2018.    
        2006.       2005.       1988.       1960.       1930.       1898.       1865.       1829.       1791.       1752.    
        1710.       1666.       1620.       1572.       1522.       1470.       1416.       1360.       1301.       1241.    
        1178.       1114.       1047.       977.7       906.6       833.3    
  96    1771.       1809.       1847.       1884.       1922.       1959.       1997.       2034.       1955.       2225.    
        2016.       1906.       1902.       1909.       2058.       1998.       1931.       2019.       2054.       2060.    
        1923.       1960.       1955.       1961.       2005.       2162.       2151.       2048.       1997.       1992.    
        1998.       1925.       1858.       1848.       1870.       1940.       1956.       1989.       1981.       2018.    
        2051.       2064.       2157.       2161.       2199.       2131.       2128.       2103.       2045.       2021.    
        2024.       2007.       1983.       1957.       1928.       1898.       1866.       1832.       1795.       1757.    
        1717.       1675.       1630.       1584.       1536.       1485.       1433.       1378.       1321.       1263.    
        1202.       1139.       1074.       1007.       937.3       865.9    
  97    1774.       1812.       1850.       1887.       1925.       1963.       2000.       2038.       1874.       2184.    
        1990.       1906.       1900.       1964.       2067.       1937.       1959.       2020.       2038.       1991.    
        1921.       1948.       1937.       1957.       2021.       2174.       2152.       2057.       1987.       1971.    
        1937.       1937.       1862.       1836.       1859.       1965.       1994.       2017.       2008.       2069.    
        2174.       2197.       2237.       2229.       2223.       2216.       2230.       2209.       2074.       2016.    
        2017.       2001.       1982.       1957.       1932.       1903.       1872.       1839.       1804.       1767.    
        1729.       1688.       1645.       1600.       1554.       1505.       1454.       1401.       1346.       1289.    
        1230.       1168.       1105.       1040.       972.2       902.5    
  98    1777.       1815.       1853.       1890.       1928.       1966.       2003.       2018.       2700.       2102.    
        1892.       1873.       1893.       1884.       2011.       1888.       1970.       2022.       2068.       1945.    
        1934.       1936.       1928.       1957.       2020.       2187.       2158.       2086.       1974.       1980.    
        1937.       1900.       1864.       1833.       1931.       1963.       2009.       2035.       2048.       2162.    
        2236.       2220.       2189.       2196.       2213.       2195.       2181.       2210.       2095.       2019.    
        2000.       1991.       1978.       1959.       1936.       1907.       1883.       1852.       1818.       1783.    
        1746.       1706.       1665.       1622.       1576.       1529.       1480.       1428.       1375.       1319.    
        1262.       1202.       1141.       1077.       1011.       943.4    
  99    1780.       1818.       1855.       1893.       1931.       1968.       2006.       1952.       2200.       2004.    
        1856.       1853.       1900.       2058.       1949.       1860.       1979.       1988.       2003.       1918.    
        1939.       1918.       1938.       1971.       2033.       2085.       2112.       2002.       1970.       1964.    
        1966.       1907.       1861.       1862.       1951.       1980.       1996.       2036.       2109.       2123.    
        2199.       2211.       2169.       2164.       2195.       2194.       2157.       2215.       2177.       2054.    
        1984.       1977.       1970.       1957.       1939.       1917.       1889.       1857.       1835.       1803.    
        1768.       1730.       1690.       1648.       1604.       1558.       1510.       1461.       1409.       1355.    
        1299.       1241.       1181.       1119.       1055.       988.5    
 100    1782.       1820.       1858.       1896.       1933.       1971.       2009.       1870.       2157.       1989.    
        1857.       1854.       1923.       2017.       1894.       1900.       1988.       2030.       1972.       1918.    
        1939.       1936.       1956.       1994.       2012.       1990.       1996.       2002.       1982.       1942.    
        1997.       1992.       1872.       1913.       2007.       1991.       2004.       2090.       2050.       2050.    
        2156.       2181.       2168.       2128.       2168.       2172.       2159.       2208.       2227.       1976.    
        1968.       1961.       1953.       1946.       1940.       1923.       1901.       1875.       1843.       1807.    
        1784.       1758.       1720.       1679.       1637.       1592.       1546.       1498.       1447.       1395.    
        1341.       1284.       1226.       1165.       1103.       1038.    
 101    1784.       1822.       1860.       1898.       1936.       1973.       2007.       2595.       2081.       1884.    
        1827.       1828.       1989.       1962.       1851.       1926.       1976.       2022.       1952.       1935.    
        1937.       1960.       1974.       2000.       2044.       1994.       1957.       1982.       1958.       1972.    
        2014.       1999.       1858.       1953.       2027.       1995.       1991.       2036.       2020.       2108.    
        2161.       2177.       2155.       2117.       2160.       2128.       2170.       2253.       2129.       1962.    
        1954.       1946.       1938.       1930.       1923.       1916.       1910.       1889.       1863.       1833.    
        1797.       1756.       1731.       1713.       1675.       1632.       1587.       1540.       1491.       1440.    
        1387.       1332.       1275.       1216.       1155.       1092.    
 102    1785.       1823.       1862.       1900.       1938.       1975.       1948.       2167.       1993.       1818.    
        1811.       1884.       2012.       1908.       1835.       1947.       1966.       1992.       1954.       1968.    
        1964.       1965.       1990.       2006.       1993.       2008.       1984.       1940.       1935.       1955.    
        1993.       1968.       1878.       1953.       2005.       1978.       1988.       1973.       2033.       2056.    
        2159.       2164.       2176.       2126.       2097.       2101.       2209.       2249.       1958.       1949.    
        1941.       1932.       1924.       1916.       1908.       1900.       1893.       1886.       1880.       1855.    
        1825.       1791.       1751.       1706.       1678.       1665.       1632.       1587.       1539.       1490.    
        1438.       1385.       1330.       1272.       1213.       1151.    
 103    1786.       1825.       1863.       1901.       1939.       1977.       1866.       2125.       1960.       1816.    
        1813.       1818.       1967.       1863.       1840.       1957.       2029.       1980.       2005.       2006.    
        1996.       1993.       2000.       1972.       1964.       1992.       1980.       1954.       1903.       1926.    
        1984.       2039.       1899.       1889.       1964.       1932.       1966.       1974.       1987.       2069.    
        2156.       2139.       2156.       2177.       2064.       2139.       2252.       2063.       1947.       1937.    
        1928.       1919.       1910.       1902.       1893.       1885.       1878.       1870.       1863.       1856.    
        1850.       1821.       1787.       1748.       1705.       1656.       1625.       1613.       1591.       1545.    
        1495.       1443.       1389.       1333.       1275.       1215.    
 104    1787.       1825.       1864.       1902.       1940.       1978.       2477.       2056.       1892.       1790.    
        1866.       1993.       1918.       1833.       1892.       1913.       2002.       2011.       2008.       2019.    
        2033.       2030.       2001.       1951.       1943.       1979.       1951.       2009.       1936.       1914.    
        2024.       2056.       1894.       1847.       1896.       1963.       2059.       2069.       2077.       2096.    
        2142.       2115.       2097.       2108.       2086.       2197.       2201.       1945.       1935.       1926.    
        1916.       1907.       1897.       1888.       1880.       1871.       1863.       1855.       1847.       1840.    
        1833.       1826.       1820.       1787.       1749.       1706.       1659.       1606.       1572.       1561.    
        1546.       1506.       1453.       1399.       1342.       1284.    
 105    1787.       1826.       1864.       1903.       1941.       1945.       2126.       1979.       1808.       1778.    
        1850.       1960.       1877.       1827.       1922.       1973.       1999.       1983.       1984.       2013.    
        2053.       2097.       2011.       1955.       1926.       1930.       1901.       1950.       1930.       1901.    
        2030.       2010.       1851.       1855.       2006.       2045.       2091.       2100.       2056.       2078.    
        2108.       2124.       2119.       2091.       2142.       2176.       1960.       1935.       1925.       1915.    
        1905.       1895.       1885.       1876.       1867.       1858.       1849.       1841.       1833.       1825.    
        1817.       1810.       1803.       1796.       1790.       1753.       1711.       1664.       1612.       1555.    
        1518.       1507.       1497.       1469.       1415.       1358.    
 106    1786.       1825.       1864.       1902.       1941.       1862.       2084.       1904.       1787.       1764.    
        1924.       1919.       1848.       1821.       1895.       2000.       1977.       1962.       1984.       2013.    
        2032.       2069.       1984.       1951.       1923.       1898.       1886.       1877.       1904.       1873.    
        1964.       1906.       1810.       1891.       2011.       2055.       2084.       2071.       2038.       2087.    
        2104.       2106.       2132.       2110.       2105.       2144.       1935.       1925.       1914.       1904.    
        1894.       1884.       1874.       1864.       1855.       1846.       1836.       1828.       1819.       1811.    
        1802.       1794.       1787.       1780.       1773.       1767.       1759.       1718.       1673.       1622.    
        1566.       1505.       1464.       1452.       1446.       1427.    
 107    1785.       1824.       1863.       1902.       1940.       2346.       2024.       1911.       1766.       1803.    
        1943.       1883.       1841.       1870.       1924.       1975.       1962.       1946.       1971.       1986.    
        1998.       1987.       1979.       1949.       1942.       1937.       1913.       1869.       1843.       1861.    
        1908.       1837.       1795.       1947.       2061.       2088.       2054.       2007.       2029.       2092.    
        2108.       2084.       2100.       2077.       2101.       2014.       1926.       1915.       1904.       1894.    
        1883.       1873.       1863.       1853.       1843.       1834.       1824.       1815.       1806.       1797.    
        1789.       1780.       1772.       1764.       1757.       1749.       1743.       1739.       1729.       1684.    
        1634.       1580.       1520.       1455.       1411.       1397.    
 108    1783.       1822.       1861.       1900.       1935.       2072.       1961.       1826.       1756.       1805.    
        1908.       1859.       1841.       1880.       1951.       1951.       1935.       1950.       1976.       1994.    
        1938.       1917.       1919.       1947.       1950.       1917.       1889.       1862.       1835.       1849.    
        1872.       1804.       1826.       2049.       2080.       2064.       2016.       1998.       2037.       2065.    
        2095.       2086.       2066.       2056.       2085.       1927.       1916.       1905.       1895.       1884.    
        1874.       1863.       1853.       1843.       1832.       1823.       1813.       1803.       1794.       1785.    
        1776.       1767.       1758.       1750.       1742.       1734.       1727.       1719.       1713.       1711.    
        1699.       1650.       1596.       1538.       1474.       1405.    
 109    1779.       1819.       1858.       1898.       1855.       2032.       1901.       1780.       1788.       1914.    
        1878.       1849.       1849.       1866.       1917.       1928.       1920.       1938.       1958.       1972.    
        1912.       1880.       1873.       1884.       1918.       1901.       1875.       1851.       1832.       1826.    
        1837.       1786.       1869.       2067.       2046.       1988.       1959.       1983.       2010.       2058.    
        2083.       2061.       2054.       2047.       1944.       1918.       1907.       1896.       1885.       1875.    
        1864.       1853.       1843.       1832.       1822.       1812.       1802.       1792.       1782.       1773.    
        1763.       1754.       1745.       1736.       1728.       1720.       1712.       1704.       1696.       1689.    
        1683.       1684.       1669.       1616.       1558.       1495.    
 110    1775.       1815.       1855.       1894.       2204.       1982.       1932.       1760.       1780.       1887.    
        1860.       1861.       1868.       1885.       1903.       1906.       1923.       1956.       1974.       1950.    
        1920.       1886.       1852.       1837.       1887.       1909.       1885.       1857.       1839.       1806.    
        1813.       1776.       1865.       1925.       1909.       1919.       1991.       2019.       2049.       2071.    
        2066.       2029.       2013.       2026.       1921.       1910.       1899.       1888.       1876.       1866.    
        1855.       1844.       1833.       1823.       1812.       1802.       1791.       1781.       1771.       1761.    
        1752.       1742.       1733.       1724.       1715.       1706.       1697.       1689.       1681.       1674.    
        1666.       1659.       1653.       1656.       1639.       1582.    
 111    1769.       1809.       1849.       1889.       2003.       1933.       1859.       1743.       1851.       1862.    
        1856.       1879.       1884.       1884.       1892.       1917.       1943.       1951.       1945.       1884.    
        1892.       1864.       1857.       1821.       1853.       1880.       1835.       1800.       1808.       1773.    
        1769.       1778.       1822.       1866.       2003.       2027.       2073.       2072.       2047.       2046.    
        2048.       2043.       2009.       1924.       1913.       1901.       1890.       1879.       1868.       1857.    
        1846.       1835.       1824.       1813.       1802.       1792.       1781.       1771.       1761.       1751.    
        1741.       1731.       1721.       1712.       1702.       1693.       1684.       1676.       1667.       1659.    
        1651.       1643.       1636.       1629.       1623.       1629.    
 112    1762.       1802.       1843.       1844.       1966.       1890.       1809.       1740.       1853.       1850.    
        1846.       1868.       1875.       1882.       1910.       1913.       1906.       1896.       1916.       1867.    
        1874.       1866.       1835.       1806.       1808.       1852.       1810.       1781.       1757.       1766.    
        1791.       1808.       1820.       1887.       2006.       2057.       2040.       2067.       2031.       2029.    
        2011.       2028.       1995.       1916.       1905.       1893.       1882.       1871.       1859.       1848.    
        1837.       1826.       1815.       1804.       1793.       1782.       1772.       1761.       1751.       1740.    
        1730.       1720.       1710.       1700.       1690.       1681.       1672.       1663.       1654.       1645.    
        1637.       1629.       1621.       1613.       1606.       1599.    
 113    1753.       1794.       1835.       2051.       1926.       1947.       1779.       1794.       1834.       1825.    
        1856.       1853.       1870.       1898.       1902.       1883.       1888.       1878.       1886.       1848.    
        1854.       1832.       1861.       1823.       1783.       1811.       1792.       1753.       1753.       1799.    
        1848.       1882.       1868.       1905.       1960.       1963.       2015.       2040.       2040.       2009.    
        1989.       2010.       1920.       1908.       1897.       1885.       1874.       1862.       1851.       1840.    
        1828.       1817.       1806.       1795.       1784.       1773.       1762.       1751.       1741.       1730.    
        1720.       1709.       1699.       1689.       1679.       1670.       1660.       1651.       1641.       1632.    
        1623.       1615.       1606.       1598.       1591.       1583.    
 114    1742.       1784.       1825.       1916.       1891.       1893.       1755.       1804.       1825.       1838.    
        1845.       1857.       1894.       1900.       1880.       1849.       1854.       1851.       1876.       1847.    
        1852.       1820.       1838.       1811.       1771.       1770.       1758.       1744.       1793.       1836.    
        1842.       1851.       1873.       1887.       1917.       1975.       1994.       2030.       2029.       2016.    
        2014.       2005.       1912.       1901.       1889.       1877.       1866.       1854.       1843.       1831.    
        1820.       1809.       1797.       1786.       1775.       1764.       1753.       1742.       1731.       1721.    
        1710.       1699.       1689.       1679.       1669.       1659.       1649.       1639.       1629.       1620.    
        1611.       1602.       1593.       1584.       1576.       1568.    
 115    1728.       1771.       1811.       1882.       1864.       1860.       1770.       1789.       1819.       1829.    
        1840.       1875.       1883.       1867.       1866.       1850.       1825.       1829.       1856.       1839.    
        1815.       1794.       1785.       1785.       1754.       1731.       1742.       1785.       1819.       1848.    
        1865.       1875.       1894.       1910.       1920.       1997.       2017.       2041.       2034.       2019.    
        2003.       1917.       1905.       1893.       1881.       1870.       1858.       1846.       1835.       1823.    
        1812.       1800.       1789.       1778.       1766.       1755.       1744.       1733.       1722.       1711.    
        1701.       1690.       1679.       1669.       1658.       1648.       1638.       1628.       1618.       1608.    
        1599.       1590.       1580.       1571.       1563.       1554.    
 116    1712.       1756.       1889.       1851.       1907.       1836.       1802.       1796.       1803.       1833.    
        1869.       1880.       1869.       1837.       1834.       1825.       1801.       1806.       1826.       1839.    
        1780.       1770.       1740.       1746.       1722.       1732.       1778.       1814.       1832.       1851.    
        1874.       1892.       1900.       1926.       1967.       2011.       1984.       1989.       1990.       2013.    
        2013.       1909.       1897.       1886.       1874.       1862.       1850.       1839.       1827.       1815.    
        1804.       1792.       1781.       1769.       1758.       1747.       1736.       1724.       1713.       1702.    
        1691.       1681.       1670.       1659.       1648.       1638.       1628.       1617.       1607.       1597.    
        1587.       1578.       1568.       1559.       1550.       1541.    
 117    1694.       1738.       1806.       1826.       1905.       1829.       1820.       1797.       1817.       1845.    
        1858.       1862.       1843.       1828.       1807.       1813.       1801.       1787.       1802.       1813.    
        1780.       1752.       1718.       1712.       1728.       1763.       1804.       1824.       1845.       1862.    
        1886.       1918.       1918.       1938.       1987.       2015.       1975.       1951.       1980.       1974.    
        1914.       1902.       1890.       1878.       1866.       1854.       1843.       1831.       1819.       1807.    
        1796.       1784.       1773.       1761.       1750.       1738.       1727.       1716.       1705.       1694.    
        1682.       1671.       1661.       1650.       1639.       1628.       1618.       1607.       1597.       1587.    
        1577.       1567.       1557.       1547.       1538.       1529.    
 118    1671.       1716.       1775.       1810.       1848.       1801.       1783.       1800.       1823.       1812.    
        1812.       1833.       1813.       1792.       1794.       1792.       1805.       1772.       1782.       1789.    
        1777.       1740.       1708.       1719.       1759.       1787.       1805.       1816.       1826.       1844.    
        1865.       1899.       1934.       1950.       1997.       2003.       1981.       1931.       1937.       1947.    
        1907.       1895.       1883.       1871.       1859.       1847.       1835.       1823.       1812.       1800.    
        1788.       1776.       1765.       1753.       1742.       1730.       1719.       1707.       1696.       1685.    
        1674.       1663.       1652.       1641.       1630.       1619.       1608.       1598.       1587.       1577.    
        1566.       1556.       1546.       1536.       1526.       1517.    
 119    1645.       1718.       1747.       1762.       1804.       1769.       1788.       1821.       1810.       1785.    
        1782.       1797.       1785.       1773.       1771.       1771.       1785.       1777.       1757.       1768.    
        1747.       1710.       1723.       1743.       1785.       1818.       1826.       1840.       1857.       1857.    
        1890.       1893.       1919.       1951.       1993.       1973.       1942.       1926.       1913.       1913.    
        1900.       1888.       1876.       1864.       1852.       1840.       1828.       1816.       1804.       1792.    
        1780.       1769.       1757.       1745.       1734.       1722.       1711.       1699.       1688.       1677.    
        1665.       1654.       1643.       1632.       1621.       1610.       1599.       1588.       1577.       1567.    
        1556.       1546.       1536.       1525.       1515.       1506.    
 120    1614.       1668.       1689.       1811.       1750.       1765.       1792.       1812.       1784.       1763.    
        1761.       1770.       1763.       1746.       1743.       1750.       1766.       1763.       1740.       1748.    
        1709.       1719.       1747.       1779.       1803.       1828.       1846.       1865.       1883.       1879.    
        1885.       1917.       1948.       1977.       2029.       2008.       1940.       1901.       1887.       1906.    
        1894.       1882.       1869.       1857.       1845.       1833.       1821.       1809.       1797.       1785.    
        1773.       1761.       1749.       1738.       1726.       1714.       1703.       1691.       1680.       1668.    
        1657.       1646.       1634.       1623.       1612.       1601.       1590.       1579.       1568.       1557.    
        1547.       1536.       1526.       1515.       1505.       1495.    
 121    1578.       1614.       1699.       1789.       1744.       1776.       1804.       1799.       1773.       1750.    
        1741.       1740.       1756.       1767.       1734.       1754.       1743.       1741.       1715.       1701.    
        1700.       1742.       1775.       1785.       1814.       1838.       1859.       1879.       1906.       1911.    
        1900.       1921.       1964.       2006.       1988.       1975.       1955.       1927.       1913.       1900.    
        1888.       1875.       1863.       1850.       1838.       1826.       1814.       1802.       1790.       1778.    
        1766.       1754.       1742.       1730.       1718.       1707.       1695.       1683.       1672.       1660.    
        1649.       1637.       1626.       1615.       1603.       1592.       1581.       1570.       1559.       1548.    
        1537.       1527.       1516.       1505.       1495.       1484.    
 122    1535.       1604.       1702.       1746.       1755.       1785.       1800.       1797.       1765.       1734.    
        1719.       1710.       1740.       1730.       1703.       1695.       1693.       1692.       1686.       1685.    
        1718.       1748.       1786.       1796.       1817.       1855.       1886.       1892.       1924.       1945.    
        1928.       1944.       1973.       2002.       1979.       1946.       1924.       1920.       1907.       1894.    
        1881.       1869.       1856.       1844.       1831.       1819.       1807.       1795.       1783.       1770.    
        1758.       1746.       1735.       1723.       1711.       1699.       1687.       1676.       1664.       1652.    
        1641.       1629.       1618.       1606.       1595.       1584.       1573.       1561.       1550.       1539.    
        1528.       1517.       1506.       1496.       1485.       1475.    
 123    1507.       1645.       1746.       1737.       1767.       1780.       1776.       1765.       1753.       1724.    
        1698.       1684.       1694.       1679.       1674.       1672.       1666.       1675.       1687.       1711.    
        1745.       1770.       1781.       1800.       1835.       1875.       1896.       1922.       1929.       1964.    
        1966.       1982.       1979.       1965.       1962.       1963.       1949.       1912.       1901.       1888.    
        1875.       1863.       1850.       1837.       1825.       1813.       1800.       1788.       1776.       1764.    
        1751.       1739.       1727.       1715.       1703.       1692.       1680.       1668.       1656.       1645.    
        1633.       1621.       1610.       1598.       1587.       1575.       1564.       1553.       1542.       1530.    
        1519.       1508.       1497.       1486.       1476.       1465.    
 124    1567.       1647.       1735.       1752.       1764.       1757.       1749.       1723.       1720.       1709.    
        1693.       1662.       1655.       1662.       1669.       1683.       1692.       1704.       1715.       1744.    
        1765.       1790.       1802.       1822.       1856.       1887.       1925.       1943.       1970.       1964.    
        2008.       1980.       1983.       1941.       1925.       1947.       1913.       1905.       1895.       1883.    
        1870.       1857.       1844.       1831.       1819.       1806.       1794.       1781.       1769.       1757.    
        1745.       1732.       1720.       1708.       1696.       1684.       1672.       1661.       1649.       1637.    
        1625.       1614.       1602.       1590.       1579.       1567.       1556.       1545.       1533.       1522.    
        1511.       1500.       1489.       1478.       1467.       1456.    
 125    1571.       1668.       1753.       1746.       1734.       1725.       1704.       1690.       1687.       1671.    
        1655.       1657.       1664.       1682.       1709.       1714.       1723.       1739.       1752.       1749.    
        1764.       1795.       1827.       1860.       1884.       1918.       1935.       1966.       1967.       1933.    
        1966.       1956.       1950.       1957.       1904.       1912.       1907.       1899.       1890.       1879.    
        1867.       1853.       1838.       1826.       1813.       1800.       1787.       1775.       1762.       1750.    
        1738.       1726.       1713.       1701.       1689.       1677.       1665.       1653.       1641.       1629.    
        1618.       1606.       1594.       1583.       1571.       1559.       1548.       1536.       1525.       1514.    
        1502.       1491.       1480.       1469.       1458.       1447.    
 126    1585.       1698.       1715.       1711.       1701.       1686.       1676.       1665.       1649.       1654.    
        1669.       1693.       1714.       1716.       1707.       1726.       1736.       1756.       1771.       1780.    
        1775.       1784.       1831.       1868.       1889.       1902.       1906.       1924.       1931.       1904.    
        1918.       1926.       1908.       1924.       1927.       1928.       1898.       1897.       1887.       1877.    
        1865.       1852.       1837.       1820.       1807.       1794.       1782.       1769.       1756.       1744.    
        1731.       1719.       1707.       1694.       1682.       1670.       1658.       1646.       1634.       1622.    
        1610.       1598.       1587.       1575.       1563.       1552.       1540.       1528.       1517.       1505.    
        1494.       1483.       1471.       1460.       1449.       1438.    
 127    1585.       1671.       1702.       1684.       1668.       1664.       1651.       1643.       1658.       1694.    
        1719.       1746.       1759.       1737.       1719.       1746.       1757.       1769.       1798.       1814.    
        1803.       1796.       1812.       1837.       1856.       1873.       1866.       1897.       1916.       1880.    
        1894.       1892.       1890.       1905.       1940.       1979.       1947.       1885.       1886.       1877.    
        1865.       1852.       1838.       1822.       1805.       1787.       1776.       1763.       1750.       1738.    
        1725.       1712.       1700.       1688.       1675.       1663.       1651.       1639.       1627.       1615.    
        1603.       1591.       1579.       1567.       1556.       1544.       1532.       1521.       1509.       1497.    
        1486.       1475.       1463.       1452.       1441.       1429.    
 128    1559.       1650.       1641.       1644.       1642.       1644.       1651.       1688.       1711.       1724.    
        1744.       1759.       1772.       1753.       1740.       1770.       1786.       1798.       1810.       1802.    
        1796.       1790.       1787.       1810.       1828.       1839.       1851.       1897.       1897.       1895.    
        1869.       1871.       1873.       1889.       1937.       2003.       2033.       1968.       1872.       1865.    
        1869.       1855.       1841.       1825.       1809.       1791.       1770.       1755.       1744.       1732.    
        1719.       1706.       1694.       1681.       1669.       1656.       1644.       1632.       1620.       1608.    
        1596.       1584.       1572.       1560.       1548.       1536.       1525.       1513.       1501.       1490.    
        1478.       1466.       1455.       1444.       1432.       1421.    
 129    1535.       1584.       1583.       1604.       1635.       1667.       1708.       1727.       1736.       1748.    
        1760.       1772.       1786.       1781.       1766.       1762.       1775.       1774.       1779.       1784.    
        1761.       1761.       1770.       1789.       1828.       1828.       1865.       1847.       1850.       1852.    
        1854.       1855.       1856.       1858.       1916.       1995.       2083.       2087.       1988.       1859.    
        1833.       1861.       1848.       1832.       1814.       1796.       1777.       1757.       1735.       1724.    
        1713.       1700.       1688.       1675.       1662.       1650.       1638.       1625.       1613.       1601.    
        1589.       1577.       1565.       1553.       1541.       1529.       1517.       1505.       1493.       1482.    
        1470.       1459.       1447.       1435.       1424.       1413.    
 130    1515.       1504.       1554.       1601.       1669.       1687.       1707.       1714.       1726.       1735.    
        1730.       1738.       1767.       1771.       1761.       1752.       1761.       1759.       1769.       1756.    
        1745.       1743.       1760.       1793.       1813.       1822.       1829.       1833.       1836.       1838.    
        1839.       1840.       1840.       1842.       1878.       1970.       2080.       2168.       2141.       2009.    
        1847.       1797.       1840.       1842.       1824.       1806.       1786.       1766.       1744.       1721.    
        1702.       1693.       1682.       1669.       1656.       1644.       1631.       1619.       1606.       1594.    
        1582.       1570.       1558.       1545.       1533.       1522.       1510.       1498.       1486.       1474.    
        1462.       1451.       1439.       1428.       1416.       1405.    
 131    1533.       1545.       1585.       1623.       1657.       1681.       1693.       1734.       1747.       1728.    
        1708.       1722.       1751.       1758.       1753.       1749.       1747.       1755.       1760.       1758.    
        1765.       1775.       1784.       1791.       1799.       1808.       1815.       1819.       1822.       1824.    
        1824.       1825.       1825.       1825.       1826.       1927.       2050.       2183.       2255.       2196.    
        2031.       1836.       1758.       1804.       1836.       1819.       1799.       1778.       1755.       1733.    
        1709.       1684.       1671.       1662.       1650.       1638.       1625.       1612.       1600.       1588.    
        1575.       1563.       1551.       1539.       1526.       1514.       1502.       1490.       1479.       1467.    
        1455.       1443.       1431.       1420.       1408.       1397.    


 STRESS PERIOD     LENGTH       TIME STEPS     MULTIPLIER FOR DELT    SS FLAG
 ----------------------------------------------------------------------------
        1         15000.00      15000                    1.000         TR

 TRANSIENT SIMULATION



 
 # Animas MODFLOW model with initial head for 3rd round APEX-MODFLOW calibration 
 # Basic Package file created on 1/26/2022 by ModelMuse version 4.3.0.0.         
 # Number of active cells = 3537.
 THE FREE FORMAT OPTION HAS BEEN SELECTED
 THE PRINTTIME OPTION HAS BEEN SELECTED
 CALCULATE FLOW BETWEEN ADJACENT CONSTANT-HEAD CELLS



                     BOUNDARY ARRAY FOR LAYER   1
 READING ON UNIT 5013 WITH FORMAT: (FREE)              

          1     2     3     4     5     6     7     8     9    10    11    12    13    14    15    16    17    18    19    20
         21    22    23    24    25    26    27    28    29    30    31    32    33    34    35    36    37    38    39    40
         41    42    43    44    45    46    47    48    49    50    51    52    53    54    55    56    57    58    59    60
         61    62    63    64    65    66    67    68    69    70    71    72    73    74    75    76
 ............................................................................................................................
   1      0     0     0     0     0     0     0     0     0     0     0     0     0     0     0     0     0     0     0     0
          0     0     0     0     0     0     0     0     0     0     0     0     0     0     0     0     0     0     0     0
          0     0     0     0     0     0     0     0     0     0     0     0     0     0     0     0     0     0     0     0
          0     0     0     0     0     0     0     0     0     0     0     1     1     0     0     0
   2      0     0     0     0     0     0     0     0     0     0     0     0     0     0     0     0     0     0     0     0
          0     0     0     0     0     0     0     0     0     0     0     0     0     0     0     0     0     0     0     0
          0     0     0     0     0     0     0     0     0     0     0     0     0     0     0     0     0     0     0     0
          0     0     0     0     0     0     0     0     0     0     1     1     1     1     0     0
   3      0     0     0     0     0     0     0     0     0     0     0     0     0     0     0     0     0     0     0     0
          0     0     0     0     0     0     0     0     0     0     0     0     0     0     0     0     0     0     0     0
          0     0     0     0     0     0     0     0     0     0     0     0     0     0     0     0     0     0     0     0
          0     0     0     0     0     0     0     0     1     1     1     1     1     1     1     0
   4      0     0     0     0     0     0     0     0     0     0     0     0     0     0     0     0     0     0     0     0
          0     0     0     0     0     0     0     0     0     0     0     0     0     0     0     0     0     0     0     0
          0     0     0     0     0     0     0     0     0     0     0     0     0     0     0     0     0     0     0     0
          0     0     0     0     0     0     0     0     1     1     1     1     1     1     1     0
   5      0     0     0     0     0     0     0     0     0     0     0     0     0     0     0     0     0     0     0     0
          0     0     0     0     0     0     0     0     0     0     0     0     0     0     0     0     0     0     0     0
          0     0     0     0     0     0     0     0     0     0     0     0     0     0     0     0     0     0     0     0
          0     0     0     0     0     1     1     1     1     1     1     1     1     1     1     0
   6      0     0     0     0     0     0     0     0     0     0     0     0     0     0     0     0     0     0     0     0
          0     0     0     0     0     0     0     0     0     0     0     0     0     0     0     0     0     0     0     0
          0     0     0     0     0     0     0     0     0     0     0     0     0     0     0     0     1     1     1     1
          0     1     1     1     1     1     1     1     1     1     1     1     1     1     1     0
   7      0     0     0     0     0     0     0     0     0     0     0     0     0     0     0     0     0     0     0     0
          0     0     0     0     0     0     0     0     0     0     0     0     0     0     0     0     0     0     0     0
          0     0     0     0     0     0     0     0     0     0     0     0     0     0     0     1     1     1     1     1
          1     1     1     1     1     1     1     1     1     1     1     1     1     1     1     0
   8      0     0     0     0     0     0     0     0     0     0     0     0     0     0     0     0     0     0     0     0
          0     0     0     0     0     0     0     0     0     0     0     0     0     0     0     0     0     0     0     0
          0     0     0     0     0     0     0     0     0     0     0     0     0     0     1     1     1     1     1     1
          1     1     1     1     1     1     1     1     1     1     1     1     1     1     1     1
   9      0     0     0     0     0     0     0     0     0     0     0     0     0     0     0     0     0     0     0     0
          0     0     0     0     0     0     0     0     0     0     0     0     0     0     0     0     0     0     0     0
          0     0     0     0     0     0     0     0     0     0     0     0     0     1     1     1     1     1     1     1
          1     1     1     1     1     1     1     1     1     1     1     1     1     1     1     0
  10      0     0     0     0     0     0     0     0     0     0     0     0     0     0     0     0     0     0     0     0
          0     0     0     0     0     0     0     0     0     0     0     0     0     0     0     0     0     0     0     0
          0     0     0     0     0     0     0     0     0     0     0     0     0     1     1     1     1     1     1     1
          1     1     1     1     1     1     1     1     1     1     1     1     1     1     0     0
  11      0     0     0     0     0     0     0     0     0     0     0     0     0     0     0     0     0     0     0     0
          0     0     0     0     0     0     0     0     0     0     0     0     0     0     0     0     0     0     0     0
          0     0     0     0     0     0     0     0     0     0     0     0     0     1     1     1     1     1     1     1
          1     1     1     1     1     1     1     1     1     1     1     1     1     1     1     0
  12      0     0     0     0     0     0     0     0     0     0     0     0     0     0     0     0     0     0     0     0
          0     0     0     0     0     0     0     0     0     0     0     0     0     0     0     0     0     0     0     0
          0     0     0     0     0     0     0     0     0     0     0     0     1     1     1     1     1     1     1     1
          1     1     1     1     1     1     1     1     1     1     1     1     1     1     1     0
  13      0     0     0     0     0     0     0     0     0     0     0     0     0     0     0     0     0     0     0     0
          0     0     0     0     0     0     0     0     0     0     0     0     0     0     0     0     0     0     0     0
          0     0     0     0     0     0     0     0     0     0     0     1     1     1     1     1     1     1     1     1
          1     1     1     1     1     1     1     1     1     1     1     1     1     1     1     0
  14      0     0     0     0     0     0     0     0     0     0     0     0     0     0     0     0     0     0     0     0
          0     0     0     0     0     0     0     0     0     0     0     0     0     0     0     0     0     0     0     0
          0     0     0     0     0     0     0     0     0     1     1     1     1     1     1     1     1     1     1     1
          1     1     1     1     1     1     1     1     1     1     1     1     1     1     1     0
  15      0     0     0     0     0     0     0     0     0     0     0     0     0     0     0     0     0     0     0     0
          0     0     0     0     0     0     0     0     0     0     0     0     0     0     0     0     0     0     0     0
          0     0     0     0     0     0     0     0     1     1     1     1     1     1     1     1     1     1     1     1
          1     1     1     1     1     1     1     1     1     1     1     1     1     1     1     0
  16      0     0     0     0     0     0     0     0     0     0     0     0     0     0     0     0     0     0     0     0
          0     0     0     0     0     0     0     0     0     0     0     0     0     0     0     0     0     0     0     0
          0     0     0     0     0     0     0     0     1     1     1     1     1     1     1     1     1     1     1     1
          1     1     1     1     1     1     1     1     1     1     1     1     1     1     1     0
  17      0     0     0     0     0     0     0     0     0     0     0     0     0     0     0     0     0     0     0     0
          0     0     0     0     0     0     0     0     0     0     0     0     0     0     0     0     0     0     0     0
          0     0     0     0     0     0     0     1     1     1     1     1     1     1     1     1     1     1     1     1
          1     1     1     1     1     1     1     1     1     1     1     1     1     1     1     0
  18      0     0     0     0     0     0     0     0     0     0     0     0     0     0     0     0     0     0     0     0
          0     0     0     0     0     0     0     0     0     0     0     0     0     0     0     0     0     0     0     0
          0     0     0     0     0     0     0     1     1     1     1     1     1     1     1     1     1     1     1     1
          1     1     1     1     1     1     1     1     1     1     1     1     1     1     0     0
  19      0     0     0     0     0     0     0     0     0     0     0     0     0     0     0     0     0     0     0     0
          0     0     0     0     0     0     0     0     0     0     0     0     0     0     0     0     0     0     0     0
          0     0     0     0     1     1     1     1     1     1     1     1     1     1     1     1     1     1     1     1
          1     1     1     1     1     1     1     1     1     1     1     1     0     0     0     0
  20      0     0     0     0     0     0     0     0     0     0     0     0     0     0     0     0     0     0     0     0
          0     0     0     0     0     0     0     0     0     0     0     0     0     0     0     0     0     0     0     0
          0     0     0     0     1     1     1     1     1     1     1     1     1     1     1     1     1     1     1     1
          1     1     1     1     1     1     1     1     1     1     1     0     0     0     0     0
  21      0     0     0     0     0     0     0     0     0     0     0     0     0     0     0     0     0     0     0     0
          0     0     0     0     0     0     0     0     0     0     0     0     0     0     0     0     0     0     0     0
          0     0     0     0     1     1     1     1     1     1     1     1     1     1     1     1     1     1     1     1
          1     1     1     1     1     1     1     1     1     1     1     0     0     0     0     0
  22      0     0     0     0     0     0     0     0     0     0     0     0     0     0     0     0     0     0     0     0
          0     0     0     0     0     0     0     0     0     0     0     0     0     0     0     0     0     0     0     0
          0     0     0     1     1     1     1     1     1     1     1     1     1     1     1     1     1     1     1     1
          1     1     1     1     1     1     1     1     1     1     1     0     0     0     0     0
  23      0     0     0     0     0     0     0     0     0     0     0     0     0     0     0     0     0     0     0     0
          0     0     0     0     0     0     0     0     0     0     0     0     0     0     0     0     0     0     0     0
          0     0     0     1     1     1     1     1     1     1     1     1     1     1     1     1     1     1     1     1
          1     1     1     1     1     1     1     1     1     1     0     0     0     0     0     0
  24      0     0     0     0     0     0     0     0     0     0     0     0     0     0     0     0     0     0     0     0
          0     0     0     0     0     0     0     0     0     0     0     0     0     0     0     0     0     0     0     0
          1     0     0     1     1     1     1     1     1     1     1     1     1     1     1     1     1     1     1     1
          1     1     1     1     1     1     1     1     1     1     1     0     0     0     0     0
  25      0     0     0     0     0     0     0     0     0     0     0     0     0     0     0     0     0     0     0     0
          0     0     0     0     0     0     0     0     0     0     0     0     0     0     0     1     1     1     1     1
          1     1     1     1     1     1     1     1     1     1     1     1     1     1     1     1     1     1     1     1
          1     1     1     1     1     1     1     1     1     1     1     0     0     0     0     0
  26      0     0     0     0     0     0     0     0     0     0     0     0     0     0     0     0     0     0     0     0
          0     0     0     0     0     0     0     0     0     0     0     0     0     0     0     1     1     1     1     1
          1     1     1     1     1     1     1     1     1     1     1     1     1     1     1     1     1     1     1     1
          1     1     1     1     1     1     1     1     1     1     1     1     0     0     0     0
  27      0     0     0     0     0     0     0     0     0     0     0     0     0     0     0     0     0     0     0     0
          0     0     0     0     0     0     0     0     0     0     0     0     0     0     1     1     1     1     1     1
          1     1     1     1     1     1     1     1     1     1     1     1     1     1     1     1     1     1     1     1
          1     1     1     1     1     1     1     1     1     1     1     1     0     0     0     0
  28      0     0     0     0     0     0     0     0     0     0     0     0     0     0     0     0     0     0     0     0
          0     0     0     0     0     0     0     0     0     0     0     0     0     0     1     1     1     1     1     1
          1     1     1     1     1     1     1     1     1     1     1     1     1     1     1     1     1     1     1     1
          1     1     1     1     1     1     1     1     1     1     1     1     0     0     0     0
  29      0     0     0     0     0     0     0     0     0     0     0     0     0     0     0     0     0     0     0     0
          0     0     0     0     0     0     0     0     0     0     0     0     0     0     1     1     1     1     1     1
          1     1     1     1     1     1     1     1     1     1     1     1     1     1     1     1     1     1     1     1
          1     1     1     1     1     1     1     1     1     1     1     1     0     0     0     0
  30      0     0     0     0     0     0     0     0     0     0     0     0     0     0     0     0     0     0     0     0
          0     0     0     0     0     0     0     0     0     0     0     0     0     0     1     1     1     1     1     1
          1     1     1     1     1     1     1     1     1     1     1     1     1     1     1     1     1     1     1     1
          1     1     1     1     1     1     1     1     0     1     0     0     0     0     0     0
  31      0     0     0     0     0     0     0     0     0     0     0     0     0     0     0     0     0     0     0     0
          0     0     0     0     0     0     0     0     0     0     0     0     0     0     1     1     1     1     1     1
          1     1     1     1     1     1     1     1     1     1     1     1     1     1     1     1     1     1     1     1
          1     1     1     1     1     1     1     1     0     0     0     0     0     0     0     0
  32      0     0     0     0     0     0     0     0     0     0     0     0     0     0     0     0     0     0     0     0
          0     0     0     0     0     0     0     0     0     0     0     0     0     1     1     1     1     1     1     1
          1     1     1     1     1     1     1     1     1     1     1     1     1     1     1     1     1     1     1     1
          1     1     1     1     1     1     1     1     1     0     0     0     0     0     0     0
  33      0     0     0     0     0     0     0     0     0     0     0     0     0     0     0     0     0     0     0     0
          0     0     0     0     0     0     0     0     0     0     0     0     1     1     1     1     1     1     1     1
          1     1     1     1     1     1     1     1     1     1     1     1     1     1     1     1     1     1     1     1
          1     1     1     1     1     1     1     1     0     0     0     0     0     0     0     0
  34      0     0     0     0     0     0     0     0     0     0     0     0     0     0     0     0     0     0     0     0
          0     0     0     0     0     0     0     0     0     0     0     1     1     1     1     1     1     1     1     1
          1     1     1     1     1     1     1     1     1     1     1     1     1     1     1     1     1     1     1     1
          1     1     1     1     1     1     1     0     0     0     0     0     0     0     0     0
  35      0     0     0     0     0     0     0     0     0     0     0     0     0     0     0     0     0     0     0     0
          0     0     0     0     0     0     0     0     0     0     1     1     1     1     1     1     1     1     1     1
          1     1     1     1     1     1     1     1     1     1     1     1     1     1     1     1     1     1     1     1
          1     1     1     1     1     1     1     0     0     0     0     0     0     0     0     0
  36      0     0     0     0     0     0     0     0     0     0     0     0     0     0     0     0     0     0     0     0
          0     0     0     0     0     0     0     0     0     0     1     1     1     1     1     1     1     1     1     1
          1     1     1     1     1     1     1     1     1     1     1     1     1     1     1     1     1     1     1     1
          1     1     1     1     1     1     0     0     0     0     0     0     0     0     0     0
  37      0     0     0     0     0     0     0     0     0     0     0     0     0     0     0     0     0     0     0     0
          0     0     0     0     0     0     0     0     0     0     1     1     1     1     1     1     1     1     1     1
          1     1     1     1     1     1     1     1     1     1     1     1     1     1     1     1     1     1     1     1
          1     1     1     1     1     1     0     0     0     0     0     0     0     0     0     0
  38      0     0     0     0     0     0     0     0     0     0     0     0     0     0     0     0     0     0     0     0
          0     0     0     0     0     0     0     0     0     1     1     1     1     1     1     1     1     1     1     1
          1     1     1     1     1     1     1     1     1     1     1     1     1     1     1     1     1     1     1     1
          1     1     1     1     1     1     0     0     0     0     0     0     0     0     0     0
  39      0     0     0     0     0     0     0     0     0     0     0     0     0     0     0     0     0     0     0     0
          0     0     0     0     0     0     0     0     0     1     1     1     1     1     1     1     1     1     1     1
          1     1     1     1     1     1     1     1     1     1     1     1     1     1     1     1     1     1     1     1
          1     1     1     1     1     1     0     0     0     0     0     0     0     0     0     0
  40      0     0     0     0     0     0     0     0     0     0     0     0     0     0     0     0     0     0     0     0
          0     0     0     0     0     0     0     0     1     1     1     1     1     1     1     1     1     1     1     1
          1     1     1     1     1     1     1     1     1     1     1     1     1     1     1     1     1     1     1     1
          1     1     1     1     1     0     0     0     0     0     0     0     0     0     0     0
  41      0     0     0     0     0     0     0     0     0     0     0     0     0     0     0     0     0     0     0     0
          0     0     0     0     0     0     0     0     1     1     1     1     1     1     1     1     1     1     1     1
          1     1     1     1     1     1     1     1     1     1     1     1     1     1     1     1     1     1     1     1
          1     1     1     1     0     0     0     0     0     0     0     0     0     0     0     0
  42      0     0     0     0     0     0     0     0     0     0     0     0     0     0     0     0     0     0     0     0
          0     0     0     0     0     0     0     1     1     1     1     1     1     1     1     1     1     1     1     1
          1     1     1     1     1     1     1     1     1     1     1     1     1     1     1     1     1     1     1     1
          1     1     1     1     0     0     0     0     0     0     0     0     0     0     0     0
  43      0     0     0     0     0     0     0     0     0     0     0     0     0     0     0     0     0     0     0     0
          0     0     0     0     0     0     0     1     1     1     1     1     1     1     1     1     1     1     1     1
          1     1     1     1     1     1     1     1     1     1     1     1     1     1     1     1     1     1     1     1
          1     1     1     1     1     1     0     0     0     0     0     0     0     0     0     0
  44      0     0     0     0     0     0     0     0     0     0     0     0     0     0     0     0     0     0     0     0
          0     0     0     0     0     0     1     1     1     1     1     1     1     1     1     1     1     1     1     1
          1     1     1     1     1     1     1     1     1     1     1     1     1     1     1     1     1     1     1     1
          1     1     1     1     1     1     0     0     0     0     0     0     0     0     0     0
  45      0     0     0     0     0     0     0     0     0     0     0     0     0     0     0     0     0     0     0     0
          0     0     0     0     0     0     1     1     1     1     1     1     1     1     1     1     1     1     1     1
          1     1     1     1     1     1     1     1     1     1     1     1     1     1     1     1     1     1     1     1
          1     1     1     1     1     1     0     0     0     0     0     0     0     0     0     0
  46      0     0     0     0     0     0     0     0     0     0     0     0     0     0     0     0     0     0     0     0
          0     0     0     0     0     0     1     1     1     1     1     1     1     1     1     1     1     1     1     1
          1     1     1     1     1     1     1     1     1     1     1     1     1     1     1     1     1     1     1     1
          1     1     1     1     1     1     1     1     0     0     0     0     0     0     0     0
  47      0     0     0     0     0     0     0     0     0     0     0     0     0     0     0     0     0     0     0     0
          0     0     0     0     0     0     1     1     1     1     1     1     1     1     1     1     1     1     1     1
          1     1     1     1     1     1     1     1     1     1     1     1     1     1     1     1     1     1     1     1
          1     1     1     1     1     1     1     1     0     0     0     0     0     0     0     0
  48      0     0     0     0     0     0     0     0     0     0     0     0     0     0     0     0     0     0     0     0
          0     0     0     0     0     1     1     1     1     1     1     1     1     1     1     1     1     1     1     1
          1     1     1     1     1     1     1     1     1     1     1     1     1     1     1     1     1     1     1     1
          1     1     1     1     1     0     0     0     0     0     0     0     0     0     0     0
  49      0     0     0     0     0     0     0     0     0     0     0     0     0     0     0     0     0     0     0     0
          0     0     0     0     0     1     1     1     1     1     1     1     1     1     1     1     1     1     1     1
          1     1     1     1     1     1     1     1     1     1     1     1     1     1     1     1     1     1     1     1
          1     1     1     1     0     0     0     0     0     0     0     0     0     0     0     0
  50      0     0     0     0     0     0     0     0     0     0     0     0     0     0     0     0     0     0     0     0
          0     0     0     0     0     1     1     1     1     1     1     1     1     1     1     1     1     1     1     1
          1     1     1     1     1     1     1     1     1     1     1     1     1     1     1     1     1     1     1     1
          1     1     1     1     0     0     0     0     0     0     0     0     0     0     0     0
  51      0     0     0     0     0     0     0     0     0     0     0     0     0     0     0     0     0     0     0     0
          0     0     0     0     0     1     1     1     1     1     1     1     1     1     1     1     1     1     1     1
          1     1     1     1     1     1     1     1     1     1     1     1     1     1     1     1     1     1     1     1
          1     1     1     0     0     0     0     0     0     0     0     0     0     0     0     0
  52      0     0     0     0     0     0     0     0     0     0     0     0     0     0     0     0     0     0     0     0
          0     0     0     0     0     0     0     1     1     1     1     1     1     1     1     1     1     1     1     1
          1     1     1     1     1     1     1     1     1     1     1     1     1     1     1     1     1     1     1     1
          1     1     1     0     0     0     0     0     0     0     0     0     0     0     0     0
  53      0     0     0     0     0     0     0     0     0     0     0     0     0     0     0     0     0     0     0     0
          0     0     0     0     0     0     0     0     1     1     1     1     1     1     1     1     1     1     1     1
          1     1     1     1     1     1     1     1     1     1     1     1     1     1     1     1     1     1     1     1
          1     1     0     0     0     0     0     0     0     0     0     0     0     0     0     0
  54      0     0     0     0     0     0     0     0     0     0     0     0     0     0     0     0     0     0     0     0
          0     0     0     0     0     0     0     1     1     1     1     1     1     1     1     1     1     1     1     1
          1     1     1     1     1     1     1     1     1     1     1     1     1     1     1     1     1     1     1     1
          1     0     0     0     0     0     0     0     0     0     0     0     0     0     0     0
  55      0     0     0     0     0     0     0     0     0     0     0     0     0     0     0     0     0     0     0     0
          0     0     0     0     0     0     0     1     1     1     1     1     1     1     1     1     1     1     1     1
          1     1     1     1     1     1     1     1     1     1     1     1     1     1     1     1     1     1     1     1
          1     0     0     0     0     0     0     0     0     0     0     0     0     0     0     0
  56      0     0     0     0     0     0     0     0     0     0     0     0     0     0     0     0     0     0     0     0
          0     0     0     0     0     0     1     1     1     1     1     1     1     1     1     1     1     1     1     1
          1     1     1     1     1     1     1     1     1     1     1     1     1     1     1     1     1     1     1     1
          1     1     0     0     0     0     0     0     0     0     0     0     0     0     0     0
  57      0     0     0     0     0     0     0     0     0     0     0     0     0     0     0     0     0     0     0     0
          0     0     0     0     0     0     1     1     1     1     1     1     1     1     1     1     1     1     1     1
          1     1     1     1     1     1     1     1     1     1     1     1     1     1     1     1     1     1     1     1
          1     1     0     0     0     0     0     0     0     0     0     0     0     0     0     0
  58      0     0     0     0     0     0     0     0     0     0     0     0     0     0     0     0     0     0     0     0
          0     0     0     0     1     1     1     1     1     1     1     1     1     1     1     1     1     1     1     1
          1     1     1     1     1     1     1     1     1     1     1     1     1     1     1     1     1     1     1     1
          1     0     0     0     0     0     0     0     0     0     0     0     0     0     0     0
  59      0     0     0     0     0     0     0     0     0     0     0     0     0     0     0     0     0     0     0     0
          0     0     0     0     0     1     1     1     1     1     1     1     1     1     1     1     1     1     1     1
          1     1     1     1     1     1     1     1     1     1     1     1     1     1     1     1     1     1     1     1
          0     0     0     0     0     0     0     0     0     0     0     0     0     0     0     0
  60      0     0     0     0     0     0     0     0     0     0     0     0     0     0     0     0     0     0     0     0
          0     0     0     0     1     1     1     1     1     1     1     1     1     1     1     1     1     1     1     1
          1     1     1     1     1     1     1     1     1     1     1     1     1     1     1     1     1     1     1     0
          0     0     0     0     0     0     0     0     0     0     0     0     0     0     0     0
  61      0     0     0     0     0     0     0     0     0     0     0     0     0     0     0     0     0     0     0     0
          0     0     0     0     1     1     1     1     1     1     1     1     1     1     1     1     1     1     1     1
          1     1     1     1     1     1     1     1     1     1     1     1     1     1     1     1     1     1     1     0
          0     0     0     0     0     0     0     0     0     0     0     0     0     0     0     0
  62      0     0     0     0     0     0     0     0     0     0     0     0     0     0     0     0     0     0     0     0
          0     0     0     0     1     1     1     1     1     1     1     1     1     1     1     1     1     1     1     1
          1     1     1     1     1     1     1     1     1     1     1     1     1     1     1     1     1     1     1     0
          0     0     0     0     0     0     0     0     0     0     0     0     0     0     0     0
  63      0     0     0     0     0     0     0     0     0     0     0     0     0     0     0     0     0     0     0     0
          0     0     0     1     1     1     1     1     1     1     1     1     1     1     1     1     1     1     1     1
          1     1     1     1     1     1     1     1     1     1     1     1     1     1     1     1     1     1     1     0
          0     0     0     0     0     0     0     0     0     0     0     0     0     0     0     0
  64      0     0     0     0     0     0     0     0     0     0     0     0     0     0     0     0     0     0     0     0
          0     0     0     1     1     1     1     1     1     1     1     1     1     1     1     1     1     1     1     1
          1     1     1     1     1     1     1     1     1     1     1     1     1     1     1     1     1     1     0     0
          0     0     0     0     0     0     0     0     0     0     0     0     0     0     0     0
  65      0     0     0     0     0     0     0     0     0     0     0     0     0     0     0     0     0     0     0     0
          0     0     0     1     1     1     1     1     1     1     1     1     1     1     1     1     1     1     1     1
          1     1     1     1     1     1     1     1     1     1     1     1     1     1     1     1     1     0     0     0
          0     0     0     0     0     0     0     0     0     0     0     0     0     0     0     0
  66      0     0     0     0     0     0     0     0     0     0     0     0     0     0     0     0     0     0     0     0
          0     0     0     1     1     1     1     1     1     1     1     1     1     1     1     1     1     1     1     1
          1     1     1     1     1     1     1     1     1     1     1     1     1     1     1     1     0     0     0     0
          0     0     0     0     0     0     0     0     0     0     0     0     0     0     0     0
  67      0     0     0     0     0     0     0     0     0     0     0     0     0     0     0     0     0     0     0     0
          0     0     0     1     1     1     1     1     1     1     1     1     1     1     1     1     1     1     1     1
          1     1     1     1     1     1     1     1     1     1     1     1     1     1     1     1     0     0     0     0
          0     0     0     0     0     0     0     0     0     0     0     0     0     0     0     0
  68      0     0     0     0     0     0     0     0     0     0     0     0     0     0     0     0     0     0     0     0
          0     0     0     1     1     1     1     1     1     1     1     1     1     1     1     1     1     1     1     1
          1     1     1     1     1     1     1     1     1     1     1     1     1     1     0     0     0     0     0     0
          0     0     0     0     0     0     0     0     0     0     0     0     0     0     0     0
  69      0     0     0     0     0     0     0     0     0     0     0     0     0     0     0     0     0     0     0     0
          0     0     0     0     1     1     1     1     1     1     1     1     1     1     1     1     1     1     1     1
          1     1     1     1     1     1     1     1     1     1     1     1     1     0     0     0     0     0     0     0
          0     0     0     0     0     0     0     0     0     0     0     0     0     0     0     0
  70      0     0     0     0     0     0     0     0     0     0     0     0     0     0     0     0     0     0     0     0
          0     0     0     0     1     1     1     1     1     1     1     1     1     1     1     1     1     1     1     1
          1     1     1     1     1     1     1     1     1     1     1     0     0     0     0     0     0     0     0     0
          0     0     0     0     0     0     0     0     0     0     0     0     0     0     0     0
  71      0     0     0     0     0     0     0     0     0     0     0     0     0     0     0     0     0     0     0     0
          0     0     0     1     1     1     1     1     1     1     1     1     1     1     1     1     1     1     1     1
          1     1     1     1     1     1     1     1     1     1     1     1     0     0     0     0     0     0     0     0
          0     0     0     0     0     0     0     0     0     0     0     0     0     0     0     0
  72      0     0     0     0     0     0     0     0     0     0     0     0     0     0     0     0     0     0     0     0
          0     0     0     1     1     1     1     1     1     1     1     1     1     1     1     1     1     1     1     1
          1     1     1     1     1     1     1     1     1     1     1     1     0     0     0     0     0     0     0     0
          0     0     0     0     0     0     0     0     0     0     0     0     0     0     0     0
  73      0     0     0     0     0     0     0     0     0     0     0     0     0     0     0     0     0     0     0     0
          0     0     0     0     1     1     1     1     1     1     1     1     1     1     1     1     1     1     1     1
          1     1     1     1     1     1     1     1     1     1     1     1     0     0     0     0     0     0     0     0
          0     0     0     0     0     0     0     0     0     0     0     0     0     0     0     0
  74      0     0     0     0     0     0     0     0     0     0     0     0     0     0     0     0     0     0     0     0
          0     0     0     0     1     1     1     1     1     1     1     1     1     1     1     1     1     1     1     1
          1     1     1     1     1     1     1     1     1     1     1     0     0     0     0     0     0     0     0     0
          0     0     0     0     0     0     0     0     0     0     0     0     0     0     0     0
  75      0     0     0     0     0     0     0     0     0     0     0     0     0     0     0     0     0     0     0     0
          0     0     0     0     1     1     1     1     1     1     1     1     1     1     1     1     1     1     1     1
          1     1     1     1     1     1     1     1     1     1     0     0     0     0     0     0     0     0     0     0
          0     0     0     0     0     0     0     0     0     0     0     0     0     0     0     0
  76      0     0     0     0     0     0     0     0     0     0     0     0     0     0     0     0     0     0     0     0
          0     0     0     0     1     1     1     1     1     1     1     1     1     1     1     1     1     1     1     1
          1     1     1     1     1     1     1     1     1     1     0     0     0     0     0     0     0     0     0     0
          0     0     0     0     0     0     0     0     0     0     0     0     0     0     0     0
  77      0     0     0     0     0     0     0     0     0     0     0     0     0     0     0     0     0     0     0     0
          0     0     0     0     1     1     1     1     1     1     1     1     1     1     1     1     1     1     1     1
          1     1     1     1     1     1     1     1     1     1     0     0     0     0     0     0     0     0     0     0
          0     0     0     0     0     0     0     0     0     0     0     0     0     0     0     0
  78      0     0     0     0     0     0     0     0     0     0     0     0     0     0     0     0     0     0     0     0
          0     0     0     1     1     1     1     1     1     1     1     1     1     1     1     1     1     1     1     1
          1     1     1     1     1     1     1     1     1     1     0     0     0     0     0     0     0     0     0     0
          0     0     0     0     0     0     0     0     0     0     0     0     0     0     0     0
  79      0     0     0     0     0     0     0     0     0     0     0     0     0     0     0     0     0     0     0     0
          0     0     0     1     1     1     1     1     1     1     1     1     1     1     1     1     1     1     1     1
          1     1     1     1     1     1     1     1     1     1     0     0     0     0     0     0     0     0     0     0
          0     0     0     0     0     0     0     0     0     0     0     0     0     0     0     0
  80      0     0     0     0     0     0     0     0     0     0     0     0     0     0     0     0     0     0     0     0
          0     0     0     0     1     1     1     1     1     1     1     1     1     1     1     1     1     1     1     1
          1     1     1     1     1     1     1     1     1     1     1     0     0     0     0     0     0     0     0     0
          0     0     0     0     0     0     0     0     0     0     0     0     0     0     0     0
  81      0     0     0     0     0     0     0     0     0     0     0     0     0     0     0     0     0     0     0     0
          0     0     0     0     0     1     1     1     1     1     1     1     1     1     1     1     1     1     1     1
          1     1     1     1     1     1     1     1     1     1     1     0     0     0     0     0     0     0     0     0
          0     0     0     0     0     0     0     0     0     0     0     0     0     0     0     0
  82      0     0     0     0     0     0     0     0     0     0     0     0     0     0     0     0     0     0     0     0
          0     0     0     0     0     1     1     1     1     1     1     1     1     1     1     1     1     1     1     1
          1     1     1     1     1     1     1     1     1     1     1     1     0     0     0     0     0     0     0     0
          0     0     0     0     0     0     0     0     0     0     0     0     0     0     0     0
  83      0     0     0     0     0     0     0     0     0     0     0     0     0     0     0     0     0     0     0     0
          0     0     0     0     1     1     1     1     1     1     1     1     1     1     1     1     1     1     1     1
          1     1     1     1     1     1     1     1     1     1     1     1     0     0     0     0     0     0     0     0
          0     0     0     0     0     0     0     0     0     0     0     0     0     0     0     0
  84      0     0     0     0     0     0     0     0     0     0     0     0     0     0     0     0     0     0     0     0
          0     0     0     0     1     1     1     1     1     1     1     1     1     1     1     1     1     1     1     1
          1     1     1     1     1     1     1     1     1     1     1     1     0     0     0     0     0     0     0     0
          0     0     0     0     0     0     0     0     0     0     0     0     0     0     0     0
  85      0     0     0     0     0     0     0     0     0     0     0     0     0     0     0     0     0     0     0     0
          0     0     0     0     1     1     1     1     1     1     1     1     1     1     1     1     1     1     1     1
          1     1     1     1     1     1     1     1     1     1     1     0     0     0     0     0     0     0     0     0
          0     0     0     0     0     0     0     0     0     0     0     0     0     0     0     0
  86      0     0     0     0     0     0     0     0     0     0     0     0     0     0     0     0     0     0     0     0
          0     0     0     0     1     1     1     1     1     1     1     1     1     1     1     1     1     1     1     1
          1     1     1     1     1     1     1     1     1     1     1     1     0     0     0     0     0     0     0     0
          0     0     0     0     0     0     0     0     0     0     0     0     0     0     0     0
  87      0     0     0     0     0     0     0     0     0     0     0     0     0     0     0     0     0     0     0     0
          0     0     0     0     0     1     1     1     1     1     1     1     1     1     1     1     1     1     1     1
          1     1     1     1     1     1     1     1     1     1     1     0     0     0     0     0     0     0     0     0
          0     0     0     0     0     0     0     0     0     0     0     0     0     0     0     0
  88      0     0     0     0     0     0     0     0     0     0     0     0     0     0     0     0     0     0     0     0
          0     0     0     0     0     1     1     1     1     1     1     1     1     1     1     1     1     1     1     1
          1     1     1     1     1     1     1     1     1     1     0     0     0     0     0     0     0     0     0     0
          0     0     0     0     0     0     0     0     0     0     0     0     0     0     0     0
  89      0     0     0     0     0     0     0     0     0     0     0     0     0     0     0     0     0     0     0     0
          0     0     0     0     0     1     1     1     1     1     1     1     1     1     1     1     1     1     1     1
          1     1     1     1     1     1     1     1     1     0     0     0     0     0     0     0     0     0     0     0
          0     0     0     0     0     0     0     0     0     0     0     0     0     0     0     0
  90      0     0     0     0     0     0     0     0     0     0     0     0     0     0     0     0     0     0     0     0
          0     0     0     0     0     0     1     1     1     1     1     1     1     1     1     1     1     1     1     1
          1     1     1     1     1     1     1     1     0     0     0     0     0     0     0     0     0     0     0     0
          0     0     0     0     0     0     0     0     0     0     0     0     0     0     0     0
  91      0     0     0     0     0     0     0     0     0     0     0     0     0     0     0     0     0     0     0     0
          0     0     0     0     0     1     1     1     1     1     1     1     1     1     1     1     1     1     1     1
          1     1     1     1     1     1     1     1     0     0     0     0     0     0     0     0     0     0     0     0
          0     0     0     0     0     0     0     0     0     0     0     0     0     0     0     0
  92      0     0     0     0     0     0     0     0     0     0     0     0     0     0     0     0     0     0     0     0
          0     0     0     0     0     1     1     1     1     1     1     1     1     1     1     1     1     1     1     1
          1     1     1     1     1     1     1     0     0     0     0     0     0     0     0     0     0     0     0     0
          0     0     0     0     0     0     0     0     0     0     0     0     0     0     0     0
  93      0     0     0     0     0     0     0     0     0     0     0     0     0     0     0     0     0     0     0     0
          0     0     0     0     0     1     1     1     1     1     1     1     1     1     1     1     1     1     1     1
          1     1     1     1     1     1     1     0     0     0     0     0     0     0     0     0     0     0     0     0
          0     0     0     0     0     0     0     0     0     0     0     0     0     0     0     0
  94      0     0     0     0     0     0     0     0     0     0     0     0     0     0     0     0     0     0     0     0
          0     0     0     0     0     0     1     1     1     1     1     1     1     1     1     1     1     1     1     1
          1     1     1     1     1     1     1     1     0     0     0     0     0     0     0     0     0     0     0     0
          0     0     0     0     0     0     0     0     0     0     0     0     0     0     0     0
  95      0     0     0     0     0     0     0     0     0     0     0     0     0     0     0     0     0     0     0     0
          0     0     0     0     0     0     1     1     1     1     1     1     1     1     1     1     1     1     1     1
          1     1     1     1     1     1     1     1     0     0     0     0     0     0     0     0     0     0     0     0
          0     0     0     0     0     0     0     0     0     0     0     0     0     0     0     0
  96      0     0     0     0     0     0     0     0     0     0     0     0     0     0     0     0     0     0     0     0
          0     0     0     0     0     0     1     1     1     1     1     1     1     1     1     1     1     1     1     1
          1     1     1     1     1     1     1     0     0     0     0     0     0     0     0     0     0     0     0     0
          0     0     0     0     0     0     0     0     0     0     0     0     0     0     0     0
  97      0     0     0     0     0     0     0     0     0     0     0     0     0     0     0     0     0     0     0     0
          0     0     0     0     0     0     1     1     1     1     1     1     1     1     1     1     1     1     1     1
          1     1     0     0     0     0     0     0     0     0     0     0     0     0     0     0     0     0     0     0
          0     0     0     0     0     0     0     0     0     0     0     0     0     0     0     0
  98      0     0     0     0     0     0     0     0     0     0     0     0     0     0     0     0     0     0     0     0
          0     0     0     0     0     1     1     1     1     1     1     1     1     1     1     1     1     1     1     1
          1     0     0     0     0     0     0     0     0     0     0     0     0     0     0     0     0     0     0     0
          0     0     0     0     0     0     0     0     0     0     0     0     0     0     0     0
  99      0     0     0     0     0     0     0     0     0     0     0     0     0     0     0     0     0     0     0     0
          0     0     0     0     1     1     1     1     1     1     1     1     1     1     1     1     1     1     1     1
          1     0     0     0     0     0     0     0     0     0     0     0     0     0     0     0     0     0     0     0
          0     0     0     0     0     0     0     0     0     0     0     0     0     0     0     0
 100      0     0     0     0     0     0     0     0     0     0     0     0     0     0     0     0     0     0     0     0
          0     0     0     0     1     1     1     1     1     1     1     1     1     1     1     1     1     1     1     1
          1     0     0     0     0     0     0     0     0     0     0     0     0     0     0     0     0     0     0     0
          0     0     0     0     0     0     0     0     0     0     0     0     0     0     0     0
 101      0     0     0     0     0     0     0     0     0     0     0     0     0     0     0     0     0     0     0     0
          0     0     0     0     1     1     1     1     1     1     1     1     1     1     1     1     1     1     1     1
          1     0     0     0     0     0     0     0     0     0     0     0     0     0     0     0     0     0     0     0
          0     0     0     0     0     0     0     0     0     0     0     0     0     0     0     0
 102      0     0     0     0     0     0     0     0     0     0     0     0     0     0     0     0     0     0     0     0
          0     0     0     1     1     1     1     1     1     1     1     1     1     1     1     1     1     1     1     1
          0     0     0     0     0     0     0     0     0     0     0     0     0     0     0     0     0     0     0     0
          0     0     0     0     0     0     0     0     0     0     0     0     0     0     0     0
 103      0     0     0     0     0     0     0     0     0     0     0     0     0     0     0     0     0     0     0     0
          0     0     0     1     1     1     1     1     1     1     1     1     1     1     1     1     1     1     1     1
          0     0     0     0     0     0     0     0     0     0     0     0     0     0     0     0     0     0     0     0
          0     0     0     0     0     0     0     0     0     0     0     0     0     0     0     0
 104      0     0     0     0     0     0     0     0     0     0     0     0     0     0     0     0     0     0     0     0
          0     0     1     1     1     1     1     1     1     1     1     1     1     1     1     1     1     1     1     1
          0     0     0     0     0     0     0     0     0     0     0     0     0     0     0     0     0     0     0     0
          0     0     0     0     0     0     0     0     0     0     0     0     0     0     0     0
 105      0     0     0     0     0     0     0     0     0     0     0     0     0     0     0     0     0     0     0     0
          0     0     1     1     1     1     1     1     1     1     1     1     1     1     1     1     1     1     1     1
          0     0     0     0     0     0     0     0     0     0     0     0     0     0     0     0     0     0     0     0
          0     0     0     0     0     0     0     0     0     0     0     0     0     0     0     0
 106      0     0     0     0     0     0     0     0     0     0     0     0     0     0     0     0     0     0     0     0
          0     1     1     1     1     1     1     1     1     1     1     1     1     1     1     1     1     1     1     1
          0     0     0     0     0     0     0     0     0     0     0     0     0     0     0     0     0     0     0     0
          0     0     0     0     0     0     0     0     0     0     0     0     0     0     0     0
 107      0     0     0     0     0     0     0     0     0     0     0     0     0     0     0     0     0     0     0     0
          1     1     1     1     1     1     1     1     1     1     1     1     1     1     1     1     1     1     1     1
          0     0     0     0     0     0     0     0     0     0     0     0     0     0     0     0     0     0     0     0
          0     0     0     0     0     0     0     0     0     0     0     0     0     0     0     0
 108      0     0     0     0     0     0     0     0     0     0     0     0     0     0     0     0     0     0     0     0
          1     1     1     1     1     1     1     1     1     1     1     1     1     1     1     1     1     1     1     1
          0     0     0     0     0     0     0     0     0     0     0     0     0     0     0     0     0     0     0     0
          0     0     0     0     0     0     0     0     0     0     0     0     0     0     0     0
 109      0     0     0     0     0     0     0     0     0     0     0     0     0     0     0     0     0     0     0     0
          1     1     1     1     1     1     1     1     1     1     1     1     1     1     1     1     1     1     1     1
          0     0     0     0     0     0     0     0     0     0     0     0     0     0     0     0     0     0     0     0
          0     0     0     0     0     0     0     0     0     0     0     0     0     0     0     0
 110      0     0     0     0     0     0     0     0     0     0     0     0     0     0     0     0     0     0     0     1
          1     1     1     1     1     1     1     1     1     1     1     1     1     1     1     1     1     1     1     0
          0     0     0     0     0     0     0     0     0     0     0     0     0     0     0     0     0     0     0     0
          0     0     0     0     0     0     0     0     0     0     0     0     0     0     0     0
 111      0     0     0     0     0     0     0     0     0     0     0     0     0     0     0     0     0     1     1     1
          1     1     1     1     1     1     1     1     1     1     1     1     1     1     1     1     1     1     0     0
          0     0     0     0     0     0     0     0     0     0     0     0     0     0     0     0     0     0     0     0
          0     0     0     0     0     0     0     0     0     0     0     0     0     0     0     0
 112      0     0     0     0     0     0     0     0     0     0     0     0     0     0     0     1     1     1     1     1
          1     1     1     1     1     1     1     1     1     1     1     1     1     1     1     1     1     1     0     0
          0     0     0     0     0     0     0     0     0     0     0     0     0     0     0     0     0     0     0     0
          0     0     0     0     0     0     0     0     0     0     0     0     0     0     0     0
 113      0     0     0     0     0     0     0     0     0     0     0     0     0     0     1     1     1     1     1     1
          1     1     1     1     1     1     1     1     1     1     1     1     1     1     1     1     1     1     0     0
          0     0     0     0     0     0     0     0     0     0     0     0     0     0     0     0     0     0     0     0
          0     0     0     0     0     0     0     0     0     0     0     0     0     0     0     0
 114      0     0     0     0     0     0     0     0     0     0     0     0     0     1     1     1     1     1     1     1
          1     1     1     1     1     1     1     1     1     1     1     1     1     1     1     1     1     1     0     0
          0     0     0     0     0     0     0     0     0     0     0     0     0     0     0     0     0     0     0     0
          0     0     0     0     0     0     0     0     0     0     0     0     0     0     0     0
 115      0     0     0     0     0     0     0     0     0     0     0     0     1     1     1     1     1     1     1     1
          1     1     1     1     1     1     1     1     1     1     1     1     1     1     1     1     0     0     0     0
          0     0     0     0     0     0     0     0     0     0     0     0     0     0     0     0     0     0     0     0
          0     0     0     0     0     0     0     0     0     0     0     0     0     0     0     0
 116      0     0     0     0     0     0     0     0     0     0     0     1     1     1     1     1     1     1     1     1
          1     1     1     1     1     1     1     1     1     1     1     1     1     1     1     1     0     0     0     0
          0     0     0     0     0     0     0     0     0     0     0     0     0     0     0     0     0     0     0     0
          0     0     0     0     0     0     0     0     0     0     0     0     0     0     0     0
 117      0     0     0     0     0     0     0     0     0     0     1     1     1     1     1     1     1     1     1     1
          1     1     1     1     1     1     1     1     1     1     1     1     1     1     1     0     0     0     0     0
          0     0     0     0     0     0     0     0     0     0     0     0     0     0     0     0     0     0     0     0
          0     0     0     0     0     0     0     0     0     0     0     0     0     0     0     0
 118      0     0     0     0     0     0     0     0     1     1     1     1     1     1     1     1     1     1     1     1
          1     1     1     1     1     1     1     1     1     1     1     1     1     1     1     0     0     0     0     0
          0     0     0     0     0     0     0     0     0     0     0     0     0     0     0     0     0     0     0     0
          0     0     0     0     0     0     0     0     0     0     0     0     0     0     0     0
 119      0     0     0     0     0     0     0     0     1     1     1     1     1     1     1     1     1     1     1     1
          1     1     1     1     1     1     1     1     1     1     1     1     1     1     1     0     0     0     0     0
          0     0     0     0     0     0     0     0     0     0     0     0     0     0     0     0     0     0     0     0
          0     0     0     0     0     0     0     0     0     0     0     0     0     0     0     0
 120      0     0     0     0     0     0     0     0     1     1     1     1     1     1     1     1     1     1     1     1
          1     1     1     1     1     1     1     1     1     1     1     1     1     1     1     0     0     0     0     0
          0     0     0     0     0     0     0     0     0     0     0     0     0     0     0     0     0     0     0     0
          0     0     0     0     0     0     0     0     0     0     0     0     0     0     0     0
 121      0     0     0     0     0     0     0     1     1     1     1     1     1     1     1     1     1     1     1     1
          1     1     1     1     1     1     1     1     1     1     1     1     1     1     0     0     0     0     0     0
          0     0     0     0     0     0     0     0     0     0     0     0     0     0     0     0     0     0     0     0
          0     0     0     0     0     0     0     0     0     0     0     0     0     0     0     0
 122      0     0     0     0     0     0     0     1     1     1     1     1     1     1     1     1     1     1     1     1
          1     1     1     1     1     1     1     1     1     1     1     1     1     0     0     0     0     0     0     0
          0     0     0     0     0     0     0     0     0     0     0     0     0     0     0     0     0     0     0     0
          0     0     0     0     0     0     0     0     0     0     0     0     0     0     0     0
 123      0     0     0     0     0     1     1     1     1     1     1     1     1     1     1     1     1     1     1     1
          1     1     1     1     1     1     1     1     1     1     1     1     1     0     0     0     0     0     0     0
          0     0     0     0     0     0     0     0     0     0     0     0     0     0     0     0     0     0     0     0
          0     0     0     0     0     0     0     0     0     0     0     0     0     0     0     0
 124      0     0     0     0     1     1     1     1     1     1     1     1     1     1     1     1     1     1     1     1
          1     1     1     1     1     1     1     1     1     0     0     0     0     0     0     0     0     0     0     0
          0     0     0     0     0     0     0     0     0     0     0     0     0     0     0     0     0     0     0     0
          0     0     0     0     0     0     0     0     0     0     0     0     0     0     0     0
 125      0     0     0     1     1     1     1     1     1     1     1     1     1     1     1     1     1     1     1     1
          1     1     1     1     1     1     0     0     0     0     0     0     0     0     0     0     0     0     0     0
          0     0     0     0     0     0     0     0     0     0     0     0     0     0     0     0     0     0     0     0
          0     0     0     0     0     0     0     0     0     0     0     0     0     0     0     0
 126      0     0     1     1     1     1     1     1     1     1     1     1     1     1     1     1     1     1     1     1
          1     1     1     1     0     0     0     0     0     0     0     0     0     0     0     0     0     0     0     0
          0     0     0     0     0     0     0     0     0     0     0     0     0     0     0     0     0     0     0     0
          0     0     0     0     0     0     0     0     0     0     0     0     0     0     0     0
 127      0     0     1     1     1     1     1     1     1     1     1     1     1     1     1     1     1     1     1     1
          1     1     0     0     0     0     0     0     0     0     0     0     0     0     0     0     0     0     0     0
          0     0     0     0     0     0     0     0     0     0     0     0     0     0     0     0     0     0     0     0
          0     0     0     0     0     0     0     0     0     0     0     0     0     0     0     0
 128      0     1     1     1     1     1     1     1     1     1     1     1     1     1     1     1     1     1     0     0
          0     0     0     0     0     0     0     0     0     0     0     0     0     0     0     0     0     0     0     0
          0     0     0     0     0     0     0     0     0     0     0     0     0     0     0     0     0     0     0     0
          0     0     0     0     0     0     0     0     0     0     0     0     0     0     0     0
 129      1     1     1     1     1     1     1     1     1     1     1     1     1     0     0     0     0     0     0     0
          0     0     0     0     0     0     0     0     0     0     0     0     0     0     0     0     0     0     0     0
          0     0     0     0     0     0     0     0     0     0     0     0     0     0     0     0     0     0     0     0
          0     0     0     0     0     0     0     0     0     0     0     0     0     0     0     0
 130      1     1     1     1     0     0     0     0     0     0     0     0     0     0     0     0     0     0     0     0
          0     0     0     0     0     0     0     0     0     0     0     0     0     0     0     0     0     0     0     0
          0     0     0     0     0     0     0     0     0     0     0     0     0     0     0     0     0     0     0     0
          0     0     0     0     0     0     0     0     0     0     0     0     0     0     0     0
 131      0     1     1     1     0     0     0     0     0     0     0     0     0     0     0     0     0     0     0     0
          0     0     0     0     0     0     0     0     0     0     0     0     0     0     0     0     0     0     0     0
          0     0     0     0     0     0     0     0     0     0     0     0     0     0     0     0     0     0     0     0
          0     0     0     0     0     0     0     0     0     0     0     0     0     0     0     0

 AQUIFER HEAD WILL BE SET TO -2.00000E+20 AT ALL NO-FLOW NODES (IBOUND=0).



                       INITIAL HEAD FOR LAYER   1
 READING ON UNIT 5013 WITH FORMAT: (FREE)              

            1           2           3           4           5           6           7           8           9          10
           11          12          13          14          15          16          17          18          19          20
           21          22          23          24          25          26          27          28          29          30
           31          32          33          34          35          36          37          38          39          40
           41          42          43          44          45          46          47          48          49          50
           51          52          53          54          55          56          57          58          59          60
           61          62          63          64          65          66          67          68          69          70
           71          72          73          74          75          76
 ........................................................................................................................
   1  -3.0605E+04 -3.0048E+04 -2.8999E+04 -2.7388E+04 -2.5139E+04 -2.2172E+04 -1.8401E+04 -1.3734E+04  -8073.      -1884.    
        4198.       4616.       4903.       4829.       4763.       4708.       4665.       4633.       4609.       4593.    
        4586.       4584.       4589.       4599.       4614.       4631.       4652.       4675.       4698.       4722.    
        4745.       4766.       4785.       4801.       4813.       4820.       4822.       4817.       4805.       4785.    
        4756.       4717.       4668.       4607.       4534.       4448.       4348.       4234.       4104.       3958.    
        3795.       3614.       3421.       3618.       3879.       4016.       3961.       3812.       3606.       3382.    
        3175.       3023.       2963.       3032.       3267.       3600.       3568.       3378.       3543.       3555.    
        3610.       3652.       3819.       3739.       3843.       3795.    
   2  -2.8321E+04 -2.8334E+04 -2.7942E+04 -2.7079E+04 -2.5673E+04 -2.3647E+04 -2.0919E+04 -1.7397E+04 -1.2988E+04  -7590.    
       -1665.       4153.       4557.       4830.       4756.       4691.       4637.       4594.       4562.       4538.    
        4523.       4515.       4515.       4520.       4530.       4544.       4562.       4583.       4605.       4629.    
        4652.       4675.       4696.       4714.       4730.       4741.       4748.       4749.       4744.       4731.    
        4711.       4681.       4642.       4592.       4530.       4457.       4370.       4269.       4154.       4024.    
        3876.       3712.       3530.       3443.       3564.       3668.       3743.       3881.       3864.       3823.    
        3579.       3185.       2970.       3022.       3295.       3677.       3603.       3508.       3722.       3711.    
        3673.       3595.       3749.       3948.       3949.       3869.    
   3  -2.5479E+04 -2.5943E+04 -2.6089E+04 -2.5854E+04 -2.5171E+04 -2.3966E+04 -2.2160E+04 -1.9666E+04 -1.6393E+04 -1.2243E+04
       -7108.      -1446.       4108.       4498.       4758.       4684.       4619.       4565.       4524.       4491.    
        4468.       4453.       4445.       4445.       4450.       4460.       4474.       4492.       4513.       4536.    
        4559.       4582.       4604.       4625.       4644.       4659.       4670.       4676.       4677.       4671.    
        4658.       4637.       4607.       4566.       4516.       4454.       4379.       4292.       4190.       4074.    
        3943.       3794.       3629.       3446.       3248.       3487.       3714.       3948.       3802.       3481.    
        3198.       3059.       3114.       3238.       3280.       3776.       3714.       3608.       3837.       3701.    
        3694.       3563.       3767.       3840.       3777.       3815.    
   4  -2.2251E+04 -2.3045E+04 -2.3606E+04 -2.3874E+04 -2.3788E+04 -2.3277E+04 -2.2267E+04 -2.0676E+04 -1.8416E+04 -1.5391E+04
      -1.1497E+04  -6625.      -1227.       4063.       4440.       4685.       4611.       4547.       4494.       4452.    
        4420.       4397.       4382.       4375.       4375.       4380.       4390.       4405.       4423.       4444.    
        4466.       4489.       4512.       4534.       4555.       4573.       4588.       4598.       4604.       4605.    
        4598.       4585.       4563.       4532.       4491.       4440.       4377.       4302.       4213.       4112.    
        3994.       3862.       3698.       3574.       3390.       3673.       3667.       3895.       3775.       3425.    
        3180.       3274.       3338.       3499.       3424.       3786.       3832.       3740.       3685.       3666.    
        3538.       3488.       3457.       3718.       3838.       3697.    
   5  -1.8820E+04 -1.9821E+04 -2.0670E+04 -2.1313E+04 -2.1693E+04 -2.1745E+04 -2.1399E+04 -2.0578E+04 -1.9198E+04 -1.7168E+04
      -1.4388E+04 -1.0752E+04  -6143.      -1008.       4018.       4381.       4613.       4539.       4475.       4423.    
        4381.       4349.       4327.       4312.       4305.       4305.       4310.       4321.       4336.       4354.    
        4374.       4396.       4419.       4442.       4464.       4484.       4502.       4516.       4527.       4532.    
        4532.       4526.       4511.       4489.       4457.       4416.       4364.       4300.       4224.       4136.    
        4032.       3729.       3887.       3655.       3570.       3811.       3818.       3808.       3568.       3366.    
        3322.       3533.       3488.       3602.       3567.       3603.       3755.       3878.       3830.       3689.    
        3717.       3663.       3355.       3664.       3935.       3840.    
   6  -1.5381E+04 -1.6463E+04 -1.7472E+04 -1.8360E+04 -1.9072E+04 -1.9550E+04 -1.9730E+04 -1.9540E+04 -1.8901E+04 -1.7726E+04
      -1.5923E+04 -1.3387E+04 -1.0006E+04  -5660.      -789.4       3974.       4322.       4540.       4467.       4404.    
        4351.       4310.       4279.       4256.       4242.       4235.       4235.       4241.       4251.       4266.    
        4284.       4305.       4326.       4349.       4372.       4393.       4413.       4431.       4445.       4455.    
        4460.       4460.       4453.       4438.       4415.       4383.       4341.       4288.       4223.       4147.    
        3748.       3854.       3873.       3668.       3725.       3872.       3872.       3663.       3458.       3401.    
        3553.       3730.       3595.       3609.       3494.       3488.       3713.       3849.       3876.       3745.    
        3738.       3562.       3360.       3527.       3805.       3833.    
   7  -1.2142E+04 -1.3180E+04 -1.4219E+04 -1.5217E+04 -1.6124E+04 -1.6889E+04 -1.7451E+04 -1.7746E+04 -1.7701E+04 -1.7236E+04
      -1.6262E+04 -1.4681E+04 -1.2387E+04  -9261.      -5177.      -570.5       3929.       4264.       4468.       4395.    
        4332.       4280.       4239.       4208.       4186.       4172.       4165.       4165.       4171.       4182.    
        4197.       4215.       4235.       4257.       4279.       4301.       4323.       4343.       4360.       4374.    
        4384.       4389.       4387.       4380.       4364.       4341.       4308.       4265.       4212.       3880.    
        3902.       3839.       3876.       3775.       3837.       3894.       3764.       3506.       3329.       3475.    
        3650.       3502.       3483.       3378.       3334.       3502.       3822.       3718.       3778.       3792.    
        3759.       3656.       3296.       3481.       3839.       3902.    
   8   -9320.     -1.0189E+04 -1.1129E+04 -1.2103E+04 -1.3067E+04 -1.3974E+04 -1.4772E+04 -1.5402E+04 -1.5799E+04 -1.5887E+04
      -1.5586E+04 -1.4805E+04 -1.3443E+04 -1.1387E+04  -8516.      -4694.      -351.6       3884.       4205.       4396.    
        4322.       4260.       4208.       4168.       4137.       4115.       4101.       4095.       4096.       4102.    
        4113.       4127.       4145.       4165.       4187.       4209.       4231.       4253.       4272.       4289.    
        4303.       4312.       4317.       4315.       4307.       4291.       4267.       4233.       3815.       3542.    
        3635.       3766.       3903.       3876.       3914.       3712.       3438.       3264.       3367.       3553.    
        3742.       3513.       3240.       3282.       3288.       3505.       3774.       3773.       3588.       3525.    
        3703.       3568.       3273.       3756.       3783.       3988.    
   9   -7147.      -7723.      -8434.      -9249.     -1.0131E+04 -1.1037E+04 -1.1921E+04 -1.2733E+04 -1.3412E+04 -1.3893E+04
      -1.4102E+04 -1.3954E+04 -1.3358E+04 -1.2209E+04 -1.0390E+04  -7771.      -4212.      -132.7       3839.       4147.    
        4323.       4250.       4188.       4137.       4097.       4066.       4045.       4031.       4026.       4026.    
        4032.       4043.       4057.       4075.       4095.       4117.       4139.       4161.       4182.       4202.    
        4218.       4232.       4241.       4245.       4243.       4234.       4217.       3743.       3540.       3157.    
        3205.       3390.       3856.       3897.       3781.       3651.       3417.       3162.       3388.       3682.    
        3646.       3404.       3168.       3515.       3431.       3604.       3870.       3753.       3499.       3280.    
        3277.       3151.       3316.       3818.       3969.       3907.    
  10   -5860.      -6022.      -6379.      -6903.      -7563.      -8324.      -9145.      -9981.     -1.0782E+04 -1.1489E+04
      -1.2037E+04 -1.2350E+04 -1.2344E+04 -1.1923E+04 -1.0981E+04  -9394.      -7027.      -3729.       86.17       3794.    
        4088.       4251.       4178.       4116.       4066.       4026.       3995.       3974.       3961.       3956.    
        3957.       3962.       3973.       3988.       4006.       4026.       4047.       4069.       4091.       4112.    
        4131.       4148.       4161.       4169.       4173.       4170.       3676.       3499.       3315.       3195.    
        3143.       3276.       3575.       3761.       3748.       3694.       3479.       3137.       3421.       3624.    
        3497.       3186.       3292.       3679.       3530.       3729.       3677.       3494.       3430.       3601.    
        3439.       3041.       3482.       3842.       3911.       3740.    
  11   -5172.      -5196.      -5218.      -5324.      -5627.      -6099.      -6707.      -7412.      -8172.      -8936.    
       -9646.     -1.0239E+04 -1.0638E+04 -1.0758E+04 -1.0502E+04  -9759.      -8399.      -6282.      -3246.       305.2    
        3750.       4029.       4178.       4106.       4044.       3994.       3955.       3925.       3904.       3892.    
        3886.       3887.       3893.       3903.       3918.       3936.       3956.       3977.       3999.       4021.    
        4042.       4061.       4077.       4089.       4098.       3615.       3616.       3318.       3252.       3510.    
        3274.       3513.       3681.       3459.       3348.       3298.       3260.       3120.       3383.       3612.    
        3369.       3098.       3328.       3734.       3836.       3815.       3854.       3782.       3766.       3534.    
        3096.       3038.       3430.       3610.       3833.       3796.    
  12   -4520.      -4540.      -4557.      -4571.      -4583.      -4640.      -4889.      -5309.      -5865.      -6515.    
       -7211.      -7897.      -8510.      -8974.      -9203.      -9099.      -8544.      -7408.      -5538.      -2764.    
        524.5       3705.       3971.       4105.       4033.       3972.       3923.       3884.       3854.       3834.    
        3822.       3816.       3817.       3823.       3834.       3849.       3866.       3886.       3908.       3929.    
        3951.       3972.       3990.       4006.       3558.       3437.       3642.       3524.       3398.       3694.    
        3455.       3803.       3625.       3439.       3335.       3264.       3139.       3120.       3453.       3541.    
        3263.       3056.       3344.       3704.       3766.       3656.       3852.       3804.       3647.       3250.    
        2953.       3161.       3302.       3410.       3795.       3897.    
  13   -3903.      -3919.      -3931.      -3941.      -3947.      -3951.      -3952.      -3972.      -4166.      -4534.    
       -5038.      -5632.      -6261.      -6865.      -7368.      -7686.      -7716.      -7340.      -6420.      -4795.    
       -2281.       743.4       3660.       3912.       4033.       3961.       3901.       3851.       3813.       3784.    
        3764.       3752.       3746.       3747.       3753.       3764.       3779.       3797.       3817.       3838.    
        3860.       3881.       3901.       3502.       3180.       3326.       3481.       3772.       3624.       3895.    
        3830.       3752.       3675.       3661.       3503.       3531.       3176.       3118.       3549.       3552.    
        3196.       3007.       3246.       3635.       3582.       3511.       3698.       3494.       3276.       2984.    
        3151.       3182.       3603.       3541.       3753.       3860.    
  14   -3320.      -3332.      -3340.      -3346.      -3348.      -3347.      -3343.      -3336.      -3326.      -3320.    
       -3458.      -3774.      -4225.      -4761.      -5322.      -5835.      -6215.      -6360.      -6148.      -5436.    
       -4052.      -1798.       962.3       3615.       3853.       3960.       3889.       3829.       3780.       3742.    
        3714.       3694.       3681.       3676.       3677.       3684.       3695.       3709.       3727.       3747.    
        3768.       3790.       3449.       3177.       3083.       3238.       3467.       3808.       3872.       3811.    
        3725.       3666.       3526.       3738.       3529.       3349.       3197.       2985.       3204.       3367.    
        3337.       2998.       3141.       3438.       3203.       3233.       3268.       3092.       2951.       3234.    
        3490.       3482.       3446.       3743.       3718.       3809.    
  15   -2770.      -2778.      -2783.      -2784.      -2782.      -2777.      -2769.      -2757.      -2743.      -2725.    
       -2706.      -2683.      -2764.      -3028.      -3427.      -3904.      -4390.      -4802.      -5037.      -4972.    
       -4457.      -3309.      -1315.       1181.       3570.       3794.       3888.       3817.       3757.       3709.    
        3672.       3643.       3623.       3611.       3606.       3608.       3614.       3625.       3640.       3658.    
        3678.       3404.       3373.       3346.       3176.       3129.       3450.       3830.       3917.       3736.    
        3575.       3340.       3156.       3304.       3181.       2984.       2996.       2974.       2910.       2993.    
        3279.       3096.       2929.       2975.       2890.       2915.       2998.       3080.       3077.       3424.    
        3789.       3818.       3636.       3670.       3758.       3844.    
  16   -2251.      -2256.      -2258.      -2256.      -2250.      -2241.      -2229.      -2213.      -2194.      -2172.    
       -2148.      -2120.      -2090.      -2057.      -2085.      -2296.      -2642.      -3059.      -3464.      -3759.    
       -3818.      -3484.      -2568.      -832.5       1400.       3525.       3736.       3815.       3745.       3686.    
        3639.       3601.       3573.       3553.       3541.       3537.       3538.       3545.       3556.       3571.    
        3371.       3612.       3638.       3498.       3576.       3338.       3480.       3889.       3941.       3844.    
        3682.       3202.       3167.       3069.       3079.       3320.       3453.       3347.       3047.       2933.    
        2913.       2864.       2808.       2924.       3100.       3176.       3174.       3521.       3314.       3126.    
        3502.       3830.       3732.       3603.       3857.       3792.    
  17   -1762.      -1765.      -1764.      -1759.      -1751.      -1738.      -1722.      -1703.      -1680.      -1654.    
       -1625.      -1593.      -1558.      -1520.      -1478.      -1435.      -1421.      -1580.      -1872.      -2224.    
       -2539.      -2691.      -2523.      -1828.      -349.8       1619.       3480.       3677.       3743.       3673.    
        3615.       3568.       3530.       3502.       3483.       3471.       3467.       3469.       3475.       3360.    
        3501.       3472.       3724.       3861.       3883.       3646.       3643.       3822.       3774.       3555.    
        3305.       3252.       3546.       3440.       3393.       3594.       3595.       3228.       3348.       3272.    
        2999.       2797.       2970.       3274.       3419.       3470.       3240.       3677.       3685.       3185.    
        3456.       3791.       3767.       3635.       3835.       3792.    
  18   -1303.      -1304.      -1301.      -1293.      -1282.      -1267.      -1248.      -1226.      -1199.      -1170.    
       -1136.      -1100.      -1061.      -1018.      -972.3      -923.5      -871.8      -817.4      -772.4      -877.2    
       -1116.      -1399.      -1606.      -1575.      -1090.       132.9       1838.       3436.       3618.       3671.    
        3602.       3544.       3496.       3460.       3432.       3413.       3402.       3398.       3375.       3314.    
        3300.       3374.       3477.       3689.       3945.       3816.       3770.       3634.       3484.       3293.    
        3412.       3546.       3599.       3560.       3700.       3679.       3426.       3499.       3707.       3563.    
        3285.       2843.       3195.       3651.       3734.       3698.       3598.       3805.       3732.       3261.    
        3639.       3816.       3787.       3781.       3720.       3713.    
  19   -871.6      -871.2      -866.5      -857.4      -844.1      -826.7      -805.2      -779.8      -750.6      -717.6    
       -681.1      -641.0      -598.0      -551.4      -501.2      -447.9      -391.5      -332.2      -269.9      -204.8    
       -138.5      -189.4      -373.7      -579.9      -649.0      -355.8       615.6       2057.       3391.       3560.    
        3599.       3530.       3472.       3426.       3389.       3362.       3343.       3432.       3210.       3335.    
        3314.       3407.       3574.       3825.       3804.       3586.       3788.       3739.       3584.       3428.    
        3733.       3814.       3692.       3637.       3744.       3572.       3385.       3551.       3808.       3588.    
        3227.       2917.       3278.       3558.       3702.       3862.       3793.       3846.       3637.       3288.    
        3748.       3791.       3861.       3803.       3763.       3556.    
  20   -467.7      -466.4      -460.5      -450.0      -435.0      -415.8      -392.3      -364.6      -332.9      -297.2    
       -257.7      -214.6      -167.9      -118.0      -64.01      -6.688       53.90       117.7       184.5       254.6    
        327.3       402.9       481.6       483.8       355.5       242.5       373.2       1098.       2276.       3347.    
        3503.       3527.       3458.       3401.       3355.       3319.       3284.       3297.       3454.       3286.    
        3282.       3362.       3500.       3726.       3874.       3462.       3801.       3877.       3639.       3575.    
        3846.       3602.       3539.       3530.       3609.       3640.       3485.       3696.       3786.       3636.    
        3201.       2921.       3150.       3465.       3663.       3804.       3850.       3752.       3510.       3383.    
        3739.       3814.       3694.       3749.       3771.       3714.    
  21   -90.01      -88.20      -81.54      -70.12      -54.05      -33.43      -8.342       21.11       54.82       92.71    
        134.7       180.5       230.2       283.1       340.3       401.1       465.5       533.2       604.2       678.6    
        756.0       836.3       920.1       1006.       1095.       1142.       1074.       1092.       1581.       2495.    
        3303.       3444.       3455.       3387.       3330.       3283.       3393.       3454.       3391.       3244.    
        3278.       3415.       3549.       3777.       3664.       3439.       3640.       3710.       3689.       3646.    
        3533.       3362.       3236.       3285.       3410.       3376.       3534.       3713.       3585.       3342.    
        3129.       2913.       3229.       3384.       3491.       3740.       3880.       3709.       3607.       3477.    
        3671.       3746.       3622.       3663.       3842.       3847.    
  22    262.7       264.5       271.4       283.2       299.9       321.4       347.6       378.4       413.6       453.2    
        497.2       545.3       597.3       653.1       712.8       776.7       844.3       915.5       990.2       1068.    
        1150.       1235.       1323.       1414.       1508.       1604.       1704.       1786.       1788.       2064.    
        2716.       3259.       3386.       3383.       3277.       3194.       3171.       3428.       3451.       3285.    
        3338.       3452.       3590.       3683.       3505.       3298.       3483.       3634.       3711.       3665.    
        3623.       3506.       3283.       3167.       3304.       3302.       3476.       3493.       3425.       3252.    
        3116.       2911.       3339.       3508.       3639.       3708.       3889.       3802.       3671.       3643.    
        3685.       3646.       3556.       3475.       3627.       3822.    
  23    591.3       592.7       599.3       611.1       628.0       649.9       676.7       708.3       744.6       785.5    
        830.9       880.6       934.7       992.8       1055.       1121.       1191.       1266.       1343.       1425.    
        1510.       1599.       1691.       1787.       1885.       1986.       2090.       2198.       2308.       2416.    
        2549.       2935.       3214.       3393.       3423.       3305.       3260.       3312.       3420.       3320.    
        3333.       3413.       3569.       3463.       3384.       3148.       3530.       3675.       3566.       3638.    
        3598.       3628.       3377.       3115.       3209.       3362.       3360.       3321.       3252.       3188.    
        3178.       2902.       3314.       3536.       3613.       3712.       3805.       3836.       3704.       3724.    
        3809.       3737.       3586.       3489.       3477.       3755.    
  24    897.1       897.5       903.4       914.6       931.2       953.1       980.0       1012.       1049.       1090.    
        1137.       1188.       1243.       1303.       1367.       1435.       1508.       1585.       1665.       1750.    
        1838.       1930.       2026.       2125.       2228.       2333.       2442.       2554.       2669.       2787.    
        2908.       3032.       3091.       3215.       3449.       3419.       3398.       3455.       3483.       3436.    
        3397.       3449.       3581.       3482.       3178.       3139.       3346.       3379.       3421.       3638.    
        3452.       3522.       3326.       3084.       3226.       3243.       3226.       3279.       3240.       3119.    
        3065.       2873.       3179.       3403.       3597.       3681.       3760.       3783.       3692.       3752.    
        3799.       3757.       3669.       3535.       3480.       3679.    
  25    1181.       1180.       1185.       1195.       1211.       1232.       1259.       1290.       1327.       1369.    
        1416.       1468.       1524.       1585.       1651.       1720.       1795.       1874.       1956.       2043.    
        2134.       2229.       2328.       2431.       2537.       2646.       2759.       2875.       2994.       3117.    
        3244.       3405.       3408.       3270.       3435.       3482.       3503.       3560.       3417.       3293.    
        3269.       3478.       3460.       3332.       3137.       3052.       3118.       3226.       3392.       3557.    
        3417.       3317.       3207.       3026.       3101.       3166.       3233.       3278.       3221.       3242.    
        3231.       2820.       3085.       3415.       3729.       3724.       3784.       3679.       3561.       3655.    
        3779.       3788.       3693.       3564.       3652.       3603.    
  26    1444.       1441.       1444.       1453.       1467.       1488.       1513.       1545.       1581.       1623.    
        1670.       1722.       1779.       1840.       1907.       1977.       2053.       2134.       2218.       2307.    
        2400.       2498.       2599.       2705.       2814.       2926.       3043.       3163.       3286.       3413.    
        3544.       3435.       3638.       3420.       3385.       3217.       3308.       3307.       3132.       3141.    
        3342.       3507.       3497.       3279.       3114.       2947.       3225.       3451.       3484.       3465.    
        3380.       3281.       3094.       2976.       3125.       3241.       3351.       3406.       3434.       3533.    
        3397.       2848.       2857.       3020.       3251.       3313.       3477.       3382.       3328.       3611.    
        3762.       3790.       3687.       3685.       3662.       3527.    
  27    1689.       1682.       1683.       1690.       1703.       1721.       1746.       1776.       1811.       1852.    
        1899.       1951.       2008.       2070.       2137.       2208.       2284.       2366.       2452.       2542.    
        2637.       2736.       2840.       2947.       3059.       3175.       3294.       3417.       3544.       3675.    
        3397.       3502.       3640.       3560.       3335.       3108.       3141.       3138.       3016.       3167.    
        3256.       3523.       3524.       3417.       3144.       2946.       3234.       3583.       3647.       3536.    
        3375.       3155.       2969.       2967.       3186.       3353.       3498.       3593.       3687.       3607.    
        3179.       2790.       2937.       3110.       3008.       3019.       3110.       3280.       3336.       3447.    
        3717.       3778.       3761.       3762.       3599.       3458.    
  28    1914.       1906.       1902.       1906.       1917.       1934.       1956.       1985.       2019.       2059.    
        2105.       2156.       2212.       2274.       2341.       2413.       2489.       2571.       2658.       2749.    
        2845.       2946.       3051.       3161.       3275.       3393.       3515.       3640.       3770.       3904.    
        3351.       3513.       3435.       3412.       3325.       3070.       2991.       2969.       2973.       3077.    
        3271.       3548.       3532.       3291.       3095.       2904.       3145.       3323.       3420.       3322.    
        3193.       3171.       2976.       3011.       3259.       3427.       3567.       3710.       3740.       3467.    
        3034.       2839.       3235.       3392.       3517.       3283.       3495.       3623.       3715.       3424.    
        3629.       3749.       3748.       3582.       3436.       3467.    
  29    2122.       2110.       2105.       2105.       2112.       2126.       2147.       2173.       2205.       2244.    
        2288.       2338.       2393.       2454.       2521.       2592.       2668.       2750.       2837.       2929.    
        3026.       3128.       3234.       3345.       3461.       3581.       3705.       3833.       3965.       3268.    
        3327.       3205.       3236.       3236.       3227.       3122.       2972.       2889.       3074.       3163.    
        3283.       3548.       3640.       3448.       3114.       2906.       2927.       3104.       3187.       3030.    
        3142.       3322.       2973.       2970.       3231.       3427.       3569.       3683.       3714.       3387.    
        2962.       2906.       3519.       3583.       3787.       3564.       3652.       3779.       3818.       3717.    
        3894.       3871.       3795.       3640.       3550.       3583.    
  30    2312.       2297.       2288.       2286.       2289.       2300.       2317.       2341.       2371.       2408.    
        2450.       2498.       2552.       2612.       2677.       2748.       2824.       2905.       2992.       3084.    
        3181.       3283.       3390.       3502.       3619.       3740.       3866.       3996.       4130.       3100.    
        2928.       3011.       3063.       3093.       3116.       3019.       2909.       2922.       3070.       3154.    
        3204.       3381.       3441.       3376.       3241.       3075.       2781.       2970.       2941.       2894.    
        3135.       3369.       2983.       3056.       3414.       3426.       3570.       3654.       3391.       3153.    
        2847.       2853.       3439.       3816.       3875.       3878.       3708.       3766.       3845.       3872.    
        3877.       3733.       3766.       3774.       3671.       3705.    
  31    2487.       2468.       2455.       2449.       2450.       2456.       2470.       2491.       2518.       2552.    
        2592.       2638.       2690.       2748.       2812.       2881.       2956.       3036.       3123.       3214.    
        3311.       3413.       3521.       3633.       3750.       3873.       3999.       4131.       3139.       2821.    
        2825.       2888.       2989.       3052.       3100.       2944.       2838.       2885.       3051.       3030.    
        3077.       3211.       3234.       3346.       3282.       3113.       2799.       2766.       2808.       2799.    
        2996.       3192.       2883.       3319.       3715.       3575.       3589.       3661.       3281.       2752.    
        2715.       2967.       3309.       3481.       3511.       3677.       3836.       3900.       3835.       3685.    
        3755.       3581.       3605.       3713.       3843.       3787.    
  32    2647.       2623.       2607.       2596.       2593.       2596.       2606.       2623.       2647.       2677.    
        2714.       2758.       2807.       2863.       2925.       2993.       3066.       3145.       3230.       3321.    
        3417.       3519.       3626.       3738.       3856.       3978.       4106.       4238.       2948.       2907.    
        2949.       2985.       3145.       3120.       3122.       3014.       2836.       2820.       2943.       2931.    
        3054.       3065.       3154.       3219.       3167.       3180.       2996.       2682.       2692.       2796.    
        2902.       2920.       2924.       3446.       3796.       3614.       3360.       3379.       2838.       2738.    
        3037.       3228.       3304.       3379.       3468.       3385.       3473.       3583.       3791.       3754.    
        3469.       3401.       3317.       3482.       3957.       3832.    
  33    2795.       2765.       2743.       2729.       2721.       2720.       2726.       2738.       2758.       2785.    
        2819.       2859.       2906.       2959.       3018.       3084.       3155.       3233.       3316.       3405.    
        3500.       3601.       3707.       3819.       3936.       4059.       4186.       3006.       3049.       3057.    
        3079.       3198.       3212.       3057.       3023.       2958.       2821.       2740.       2778.       2815.    
        2885.       2969.       3083.       3029.       3016.       3050.       3061.       2698.       2632.       2708.    
        2853.       2854.       3102.       3589.       3693.       3709.       3247.       3005.       2677.       2865.    
        3125.       3201.       3340.       3727.       3776.       3716.       3759.       3808.       3861.       3806.    
        3756.       3456.       3223.       3446.       3807.       3842.    
  34    2930.       2895.       2867.       2847.       2834.       2829.       2831.       2839.       2854.       2876.    
        2906.       2943.       2986.       3036.       3093.       3155.       3225.       3300.       3380.       3468.    
        3561.       3661.       3766.       3876.       3993.       4115.       4242.       2881.       2944.       3171.    
        3217.       3177.       3054.       3055.       2914.       2912.       2725.       2765.       2836.       2844.    
        2848.       2867.       2863.       2881.       2915.       2968.       2930.       2658.       2563.       2662.    
        2849.       2805.       3210.       3435.       3699.       3562.       3086.       2636.       2780.       3131.    
        3516.       3604.       3396.       3372.       3691.       3875.       3906.       3844.       3662.       3570.    
        3779.       3607.       3313.       3666.       3792.       3821.    
  35    2963.       2988.       2979.       2953.       2934.       2924.       2921.       2925.       2935.       2953.    
        2978.       3010.       3050.       3096.       3149.       3209.       3275.       3347.       3426.       3510.    
        3602.       3699.       3802.       3911.       4026.       4147.       4274.       2985.       3114.       3176.    
        3142.       3089.       2964.       2980.       2888.       2806.       2735.       2924.       2983.       3017.    
        3037.       3046.       3070.       3113.       3090.       2991.       2768.       2655.       2503.       2619.    
        2680.       2759.       3107.       3453.       3577.       3398.       2982.       2573.       2872.       3266.    
        3443.       3469.       3804.       3600.       3364.       3565.       3863.       3874.       3779.       3545.    
        3397.       3590.       3262.       4007.       3750.       3771.    
  36    2826.       2906.       2971.       3012.       3021.       3006.       2998.       2996.       3002.       3015.    
        3035.       3062.       3097.       3139.       3189.       3244.       3307.       3376.       3452.       3534.    
        3622.       3717.       3818.       3925.       4039.       4158.       3178.       3105.       3172.       3061.    
        2980.       2974.       2968.       2850.       2864.       2743.       2732.       2823.       2914.       2986.    
        3117.       3177.       3146.       3189.       3191.       3124.       2764.       2738.       2583.       2875.    
        2970.       3037.       3118.       3067.       3085.       3035.       2642.       2627.       2950.       3412.    
        3726.       3849.       3658.       3786.       3600.       3630.       3794.       3689.       3663.       3546.    
        3484.       3638.       3150.       3854.       3683.       3695.    
  37    2630.       2722.       2813.       2899.       2973.       3029.       3057.       3055.       3056.       3064.    
        3078.       3101.       3130.       3168.       3212.       3264.       3323.       3388.       3461.       3539.    
        3624.       3716.       3815.       3919.       4030.       4148.       3101.       3208.       3172.       2994.    
        2886.       2872.       2859.       2800.       2750.       2692.       2785.       2917.       2994.       3045.    
        3144.       3138.       3111.       3110.       3155.       2944.       2701.       2751.       2597.       2868.    
        2996.       2813.       2570.       2561.       2599.       2607.       2596.       2692.       2975.       3346.    
        3612.       3797.       3844.       3971.       3861.       3921.       3788.       3604.       3364.       3181.    
        3423.       3543.       3157.       3596.       3593.       3597.    
  38    2493.       2558.       2632.       2715.       2803.       2891.       2973.       3041.       3086.       3099.    
        3109.       3126.       3151.       3182.       3222.       3269.       3323.       3384.       3452.       3527.    
        3609.       3697.       3793.       3894.       4003.       3060.       3096.       3199.       3180.       3070.    
        2983.       2924.       2782.       2782.       2724.       2701.       2855.       2921.       2920.       2974.    
        3094.       3216.       3172.       3091.       2963.       2719.       2684.       2756.       2649.       2539.    
        2561.       2470.       2691.       2769.       2796.       2830.       3028.       3074.       2890.       3112.    
        3459.       3589.       3880.       3942.       3768.       4027.       3939.       3804.       3686.       2925.    
        3182.       3315.       3495.       3497.       3485.       3479.    
  39    2406.       2465.       2527.       2590.       2654.       2723.       2802.       2887.       2972.       3049.    
        3109.       3139.       3157.       3184.       3217.       3259.       3308.       3365.       3429.       3500.    
        3577.       3661.       3753.       3851.       3956.       3062.       3146.       3246.       3168.       2963.    
        2936.       2911.       2813.       2697.       2642.       2764.       2815.       2856.       2977.       3084.    
        3184.       3175.       3169.       3183.       2923.       2673.       2628.       2628.       2606.       2430.    
        2620.       2825.       3116.       3281.       3409.       3351.       3461.       3434.       3256.       3050.    
        3307.       3605.       3682.       3482.       3575.       3970.       3815.       3852.       3732.       2776.    
        3017.       3067.       3904.       3383.       3360.       3344.    
  40    2332.       2387.       2444.       2502.       2562.       2623.       2686.       2750.       2817.       2891.    
        2973.       3054.       3126.       3173.       3201.       3237.       3280.       3332.       3391.       3457.    
        3529.       3610.       3697.       3792.       2954.       2988.       3084.       3225.       3114.       2950.    
        2840.       2841.       2796.       2686.       2615.       2710.       2810.       2955.       3046.       3044.    
        3151.       3155.       3106.       3159.       2890.       2640.       2573.       2566.       2467.       2613.    
        2962.       3085.       3204.       3361.       3492.       3606.       3740.       3653.       3505.       3359.    
        3254.       3305.       3357.       3510.       3708.       3840.       3855.       3516.       3792.       2729.    
        3003.       2850.       3405.       3257.       3222.       3194.    
  41    2269.       2320.       2373.       2427.       2482.       2539.       2597.       2657.       2719.       2781.    
        2846.       2913.       2983.       3061.       3137.       3200.       3240.       3286.       3339.       3400.    
        3468.       3543.       3626.       3716.       3141.       3090.       3126.       3242.       3068.       2883.    
        2911.       2821.       2770.       2641.       2661.       2819.       2910.       2975.       2966.       2950.    
        3078.       3113.       3084.       3134.       2838.       2606.       2535.       2559.       2508.       2531.    
        2936.       3198.       3334.       3353.       3459.       3592.       3694.       3771.       3607.       3588.    
        3666.       3738.       3716.       3831.       3765.       3657.       3849.       3526.       3274.       2782.    
        2944.       2874.       3175.       3121.       3074.       3034.    
  42    2216.       2264.       2313.       2363.       2415.       2468.       2522.       2577.       2634.       2693.    
        2752.       2814.       2878.       2942.       3008.       3075.       3149.       3221.       3275.       3330.    
        3393.       3462.       3540.       3176.       3124.       3288.       3261.       3199.       3059.       2990.    
        2868.       2787.       2718.       2644.       2657.       2737.       2862.       2865.       2873.       2918.    
        3010.       3009.       3023.       3093.       2737.       2572.       2544.       2578.       2354.       2584.    
        3043.       3241.       3373.       3432.       3535.       3565.       3663.       3780.       3741.       3694.    
        3706.       3751.       3752.       3753.       3807.       3553.       3542.       3579.       3218.       2931.    
        2909.       3376.       3045.       2978.       2919.       2866.    
  43    2168.       2215.       2262.       2309.       2357.       2407.       2457.       2509.       2562.       2616.    
        2672.       2729.       2788.       2848.       2909.       2972.       3036.       3102.       3168.       3239.    
        3305.       3370.       3441.       3306.       3175.       3329.       3376.       3296.       3264.       3061.    
        2947.       2862.       2755.       2627.       2561.       2799.       2854.       2760.       2829.       2966.    
        2944.       2955.       3056.       3009.       2615.       2542.       2546.       2612.       2385.       2592.    
        2883.       3056.       3182.       3365.       3462.       3537.       3639.       3671.       3740.       3649.    
        3593.       3671.       3608.       3756.       3832.       3802.       3488.       3244.       3135.       3143.    
        2947.       3569.       2913.       2832.       2759.       2692.    
  44    2131.       2172.       2217.       2263.       2309.       2355.       2402.       2450.       2500.       2550.    
        2602.       2655.       2710.       2766.       2824.       2882.       2942.       3003.       3066.       3129.    
        3194.       3262.       3330.       3404.       3314.       3344.       3408.       3288.       3133.       3074.    
        2921.       2877.       2730.       2644.       2517.       2721.       2688.       2806.       2888.       2961.    
        2865.       2957.       3029.       3014.       2579.       2508.       2557.       2613.       2379.       2571.    
        3039.       3204.       3272.       3364.       3468.       3543.       3519.       3620.       3644.       3656.    
        3501.       3616.       3543.       3701.       3700.       3769.       3624.       3463.       3624.       3327.    
        3080.       3255.       2780.       2685.       2597.       2517.    
  45    2101.       2140.       2180.       2221.       2266.       2311.       2355.       2400.       2447.       2494.    
        2542.       2592.       2643.       2695.       2749.       2804.       2860.       2917.       2975.       3035.    
        3095.       3157.       3166.       3323.       3398.       3376.       3319.       3057.       2916.       2936.    
        2940.       2869.       2837.       2736.       2478.       2602.       2747.       2844.       2867.       2972.    
        2821.       2842.       2943.       2975.       2603.       2479.       2528.       2554.       2373.       2737.    
        3021.       3170.       3295.       3437.       3396.       3388.       3487.       3608.       3561.       3596.    
        3434.       3575.       3495.       3616.       3610.       3664.       3683.       3800.       3687.       3450.    
        3227.       2769.       2650.       2540.       2437.       2342.    
  46    2077.       2114.       2151.       2190.       2229.       2270.       2315.       2358.       2401.       2446.    
        2491.       2538.       2585.       2634.       2684.       2735.       2788.       2841.       2896.       2951.    
        3009.       3066.       3163.       3233.       3369.       3455.       3279.       3073.       2850.       2762.    
        2827.       2819.       2761.       2749.       2461.       2567.       2719.       2769.       2869.       2866.    
        2771.       2892.       3015.       2972.       2592.       2483.       2482.       2457.       2397.       2863.    
        2987.       3094.       3236.       3322.       3214.       3282.       3500.       3569.       3473.       3482.    
        3393.       3574.       3456.       3537.       3548.       3568.       3751.       3832.       3527.       3422.    
        3102.       2661.       2527.       2400.       2281.       2170.    
  47    2059.       2093.       2128.       2164.       2201.       2239.       2278.       2320.       2363.       2405.    
        2447.       2491.       2535.       2581.       2628.       2676.       2725.       2776.       2827.       2879.    
        2932.       2987.       2863.       3079.       3272.       3502.       3321.       3026.       2849.       2756.    
        2660.       2611.       2567.       2562.       2466.       2400.       2531.       2690.       2805.       2656.    
        2703.       2881.       2973.       2908.       2505.       2440.       2412.       2394.       2386.       2700.    
        2888.       3065.       3132.       3175.       3123.       3283.       3460.       3516.       3396.       3357.    
        3519.       3547.       3349.       3330.       3409.       3586.       3710.       3816.       3504.       3230.    
        3037.       2563.       2412.       2268.       2133.       2006.    
  48    2045.       2077.       2109.       2143.       2178.       2214.       2250.       2288.       2327.       2368.    
        2410.       2451.       2493.       2536.       2580.       2624.       2670.       2718.       2766.       2815.    
        2865.       2950.       3014.       3032.       3359.       3492.       3293.       3104.       2894.       2796.    
        2657.       2631.       2634.       2560.       2581.       2537.       2380.       2579.       2610.       2566.    
        2784.       2849.       2948.       2813.       2427.       2382.       2375.       2319.       2486.       2666.    
        2787.       2892.       2975.       3007.       3174.       3314.       3451.       3384.       3289.       3424.    
        3545.       3416.       3271.       3420.       3610.       3609.       3679.       3583.       3354.       2984.    
        2737.       2478.       2308.       2148.       1995.       1851.    
  49    2034.       2065.       2096.       2127.       2159.       2193.       2227.       2263.       2299.       2336.    
        2375.       2416.       2456.       2496.       2538.       2580.       2623.       2667.       2713.       2759.    
        2807.       2977.       3145.       3035.       3320.       3527.       3333.       3202.       2997.       2859.    
        2664.       2800.       2688.       2711.       2756.       2590.       2401.       2388.       2429.       2533.    
        2775.       2860.       2930.       2821.       2422.       2308.       2303.       2302.       2479.       2760.    
        2947.       2964.       3057.       3116.       3227.       3424.       3406.       3244.       3244.       3281.    
        3278.       3299.       3523.       3643.       3567.       3408.       3519.       3240.       3169.       2807.    
        2605.       2408.       2220.       2041.       1871.       1709.    
  50    2026.       2055.       2085.       2115.       2145.       2176.       2209.       2242.       2276.       2311.    
        2347.       2383.       2423.       2463.       2502.       2541.       2582.       2624.       2666.       2709.    
        2755.       2986.       3388.       3094.       3378.       3450.       3144.       2970.       2848.       2774.    
        2816.       2846.       2784.       2756.       2698.       2639.       2612.       2377.       2320.       2556.    
        2687.       2858.       2874.       2751.       2358.       2257.       2250.       2327.       2517.       2758.    
        2948.       3115.       3210.       3296.       3405.       3440.       3303.       3140.       3046.       3059.    
        3301.       3480.       3592.       3687.       3548.       3415.       3179.       3171.       2921.       2836.    
        2562.       2364.       2163.       1959.       1763.       1583.    
  51    2022.       2049.       2077.       2105.       2134.       2163.       2194.       2225.       2257.       2290.    
        2324.       2358.       2393.       2430.       2469.       2508.       2546.       2585.       2625.       2666.    
        2707.       2914.       3328.       3159.       3458.       3517.       3341.       3153.       3109.       2953.    
        2967.       2938.       2759.       2663.       2584.       2526.       2493.       2502.       2348.       2380.    
        2572.       2707.       2801.       2654.       2288.       2220.       2236.       2347.       2551.       2749.    
        2881.       2980.       3136.       3295.       3411.       3310.       3157.       3010.       2926.       3312.    
        3481.       3544.       3624.       3641.       3448.       3336.       3245.       3101.       2878.       2687.    
        2519.       2324.       2128.       1928.       1727.       1523.    
  52    2020.       2045.       2071.       2098.       2126.       2154.       2182.       2211.       2242.       2273.    
        2305.       2337.       2370.       2404.       2439.       2476.       2514.       2552.       2589.       2628.    
        2761.       2932.       3311.       3321.       3542.       3478.       3457.       3361.       3371.       3212.    
        3022.       2850.       2775.       2773.       2689.       2616.       2681.       2588.       2465.       2282.    
        2430.       2586.       2765.       2546.       2281.       2173.       2210.       2333.       2534.       2758.    
        2909.       3018.       3146.       3326.       3374.       3196.       2985.       2832.       3151.       3293.    
        3416.       3523.       3628.       3519.       3416.       3128.       3177.       2881.       2925.       2662.    
        2474.       2284.       2091.       1896.       1698.       1498.    
  53    2019.       2044.       2069.       2094.       2120.       2147.       2174.       2201.       2229.       2258.    
        2289.       2319.       2350.       2382.       2415.       2448.       2483.       2521.       2558.       2594.    
        2832.       2889.       3443.       3606.       3446.       3257.       3432.       3548.       3355.       3089.    
        3030.       3005.       2985.       2837.       2766.       2767.       2774.       2698.       2514.       2293.    
        2347.       2564.       2743.       2609.       2309.       2117.       2124.       2302.       2509.       2721.    
        2953.       3161.       3259.       3302.       3236.       3021.       2807.       2800.       3191.       3328.    
        3426.       3548.       3562.       3515.       3298.       3144.       2902.       2876.       2713.       2612.    
        2428.       2242.       2054.       1862.       1669.       1473.    
  54    2021.       2044.       2068.       2092.       2116.       2141.       2167.       2193.       2219.       2247.    
        2275.       2304.       2333.       2364.       2394.       2426.       2458.       2491.       2526.       2563.    
        2878.       3218.       3317.       3346.       3154.       3387.       3512.       3347.       3091.       3022.    
        2916.       3083.       3121.       3007.       2897.       2828.       2743.       2683.       2599.       2354.    
        2277.       2522.       2665.       2561.       2263.       2068.       2140.       2337.       2528.       2732.    
        3072.       3154.       3214.       3219.       3041.       2792.       2675.       2889.       3183.       3309.    
        3443.       3502.       3308.       3346.       3111.       3059.       2815.       2831.       2740.       2562.    
        2382.       2200.       2015.       1828.       1639.       1447.    
  55    2024.       2046.       2068.       2091.       2114.       2137.       2162.       2187.       2212.       2237.    
        2264.       2291.       2319.       2347.       2376.       2406.       2436.       2468.       2499.       2556.    
        2905.       3089.       3182.       3041.       3233.       3549.       3606.       3252.       2914.       2858.    
        2831.       3048.       3149.       3031.       2832.       2726.       2648.       2570.       2500.       2477.    
        2209.       2388.       2652.       2501.       2198.       2044.       2132.       2353.       2555.       2834.    
        2966.       3049.       3200.       3107.       2935.       2648.       2662.       2912.       3116.       3278.    
        3462.       3444.       3290.       3056.       2918.       2790.       2869.       2698.       2686.       2512.    
        2336.       2158.       1977.       1793.       1608.       1420.    
  56    2025.       2046.       2067.       2089.       2111.       2135.       2158.       2182.       2206.       2230.    
        2254.       2280.       2306.       2333.       2360.       2388.       2417.       2446.       2476.       2653.    
        2920.       3138.       3068.       2964.       3120.       3335.       3515.       3152.       2961.       2718.    
        2857.       3014.       3086.       3062.       2917.       2706.       2598.       2504.       2443.       2356.    
        2183.       2340.       2578.       2293.       2073.       2033.       2098.       2369.       2688.       2777.    
        2848.       3010.       3159.       3115.       2810.       2566.       2689.       2925.       3123.       3376.    
        3393.       3479.       3405.       3214.       2969.       2830.       2816.       2752.       2631.       2462.    
        2289.       2115.       1938.       1758.       1576.       1392.    
  57    2029.       2049.       2069.       2089.       2110.       2131.       2153.       2175.       2198.       2222.    
        2246.       2270.       2295.       2320.       2346.       2372.       2399.       2427.       2455.       2724.    
        2831.       2858.       2877.       3094.       3216.       3302.       3362.       3184.       2923.       2686.    
        2773.       2863.       2971.       2946.       3106.       2866.       2654.       2574.       2557.       2451.    
        2168.       2165.       2268.       2072.       2022.       2028.       2163.       2382.       2552.       2625.    
        2781.       2978.       3133.       3076.       2819.       2537.       2699.       2965.       3148.       3273.    
        3231.       3367.       3437.       3181.       2859.       2847.       2654.       2740.       2577.       2411.    
        2242.       2071.       1898.       1723.       1544.       1364.    
  58    2034.       2052.       2071.       2091.       2112.       2131.       2151.       2172.       2193.       2215.    
        2236.       2259.       2282.       2306.       2331.       2356.       2382.       2408.       2435.       2762.    
        2709.       2809.       3105.       3124.       3388.       3092.       3000.       3285.       3110.       2846.    
        2616.       2742.       2805.       2854.       2993.       2884.       2786.       2593.       2462.       2380.    
        2173.       2028.       2017.       2008.       2015.       2137.       2419.       2536.       2734.       2796.    
        2874.       3007.       3124.       3063.       2818.       2544.       2671.       2909.       3064.       3069.    
        3117.       3165.       3217.       3036.       2877.       2747.       2705.       2682.       2522.       2360.    
        2195.       2028.       1859.       1687.       1513.       1339.    
  59    2042.       2058.       2075.       2093.       2112.       2132.       2151.       2171.       2190.       2210.    
        2231.       2251.       2273.       2294.       2316.       2339.       2363.       2389.       2486.       2776.    
        2794.       3042.       3329.       3391.       3537.       3225.       2835.       3185.       3149.       2926.    
        2672.       2559.       2645.       2790.       2957.       2776.       2830.       2683.       2531.       2321.    
        2097.       1999.       1996.       2008.       2135.       2436.       2642.       2691.       2766.       2974.    
        2992.       3100.       3069.       2930.       2827.       2588.       2576.       2836.       2854.       2876.    
        2918.       2879.       2946.       2866.       2813.       2591.       2777.       2624.       2468.       2309.    
        2148.       1985.       1819.       1653.       1484.       1311.    
  60    2050.       2065.       2081.       2097.       2114.       2132.       2150.       2170.       2188.       2207.    
        2226.       2245.       2264.       2284.       2304.       2326.       2348.       2371.       2570.       2763.    
        2814.       3009.       3328.       3465.       3333.       3132.       2750.       2905.       2881.       2908.    
        2730.       2517.       2612.       2832.       2972.       2695.       2798.       2580.       2400.       2240.    
        2037.       1989.       1993.       2046.       2280.       2396.       2589.       2737.       2836.       2997.    
        3113.       3087.       3016.       2914.       2782.       2627.       2501.       2670.       2738.       2840.    
        2754.       2729.       2851.       2858.       2636.       2630.       2715.       2565.       2413.       2258.    
        2101.       1943.       1782.       1618.       1451.       1283.    
  61    2057.       2072.       2087.       2103.       2118.       2134.       2150.       2167.       2184.       2203.    
        2221.       2239.       2256.       2275.       2293.       2312.       2333.       2354.       2617.       2726.    
        2965.       3165.       3346.       3199.       3106.       2866.       2702.       2692.       2760.       2853.    
        2735.       2496.       2516.       2759.       2895.       2702.       2608.       2535.       2284.       2160.    
        1997.       1984.       2071.       2292.       2556.       2535.       2549.       2660.       2784.       2920.    
        3052.       2934.       2941.       3004.       2957.       2769.       2503.       2606.       2766.       2805.    
        2677.       2657.       2716.       2718.       2514.       2738.       2653.       2507.       2358.       2208.    
        2055.       1900.       1742.       1582.       1421.       1257.    
  62    2064.       2079.       2093.       2108.       2122.       2136.       2151.       2167.       2182.       2198.    
        2215.       2232.       2249.       2265.       2282.       2300.       2318.       2348.       2625.       2654.    
        2902.       3051.       3065.       3023.       2905.       2685.       2668.       2598.       2622.       2698.    
        2655.       2515.       2416.       2628.       2803.       2829.       2646.       2498.       2230.       2094.    
        1979.       2045.       2351.       2418.       2553.       2658.       2790.       2796.       2875.       2900.    
        2937.       2859.       2829.       2905.       2840.       2756.       2498.       2595.       2698.       2803.    
        2675.       2540.       2598.       2511.       2541.       2732.       2592.       2449.       2305.       2158.    
        2008.       1857.       1704.       1548.       1389.       1227.    
  63    2068.       2080.       2095.       2110.       2125.       2139.       2153.       2167.       2181.       2195.    
        2209.       2224.       2240.       2255.       2271.       2287.       2304.       2428.       2595.       2551.    
        2623.       2737.       2817.       3034.       2843.       2705.       2570.       2549.       2585.       2692.    
        2683.       2644.       2401.       2554.       2667.       2736.       2746.       2450.       2194.       2052.    
        1983.       2214.       2408.       2541.       2630.       2853.       2904.       2926.       2795.       2835.    
        2829.       2785.       2730.       2848.       2694.       2705.       2526.       2618.       2773.       2769.    
        2608.       2491.       2522.       2428.       2652.       2667.       2530.       2392.       2251.       2108.    
        1963.       1815.       1664.       1511.       1355.       1197.    
  64    2077.       2089.       2100.       2111.       2124.       2138.       2151.       2164.       2177.       2190.    
        2203.       2215.       2230.       2244.       2259.       2273.       2289.       2484.       2519.       2528.    
        2513.       2568.       2817.       2972.       2789.       2730.       2684.       2485.       2465.       2511.    
        2500.       2467.       2377.       2404.       2523.       2562.       2633.       2508.       2172.       2026.    
        2013.       2309.       2479.       2661.       2740.       2846.       2759.       2787.       2685.       2755.    
        2787.       2679.       2633.       2668.       2637.       2691.       2484.       2721.       2900.       2832.    
        2620.       2454.       2399.       2446.       2732.       2602.       2469.       2335.       2198.       2058.    
        1916.       1771.       1624.       1474.       1322.       1167.    
  65    2086.       2096.       2108.       2118.       2128.       2140.       2152.       2163.       2174.       2185.    
        2195.       2206.       2217.       2229.       2242.       2257.       2272.       2494.       2385.       2553.    
        2491.       2494.       2635.       2696.       2611.       2543.       2493.       2398.       2334.       2383.    
        2364.       2340.       2296.       2339.       2405.       2455.       2516.       2299.       2125.       1987.    
        2090.       2441.       2560.       2677.       2885.       2906.       2747.       2651.       2603.       2619.    
        2754.       2642.       2516.       2591.       2536.       2525.       2534.       2727.       2749.       2771.    
        2548.       2483.       2340.       2538.       2665.       2538.       2410.       2278.       2144.       2008.    
        1869.       1728.       1584.       1437.       1288.       1137.    
  66    2094.       2104.       2114.       2124.       2134.       2143.       2153.       2163.       2173.       2182.    
        2191.       2200.       2209.       2218.       2228.       2239.       2296.       2454.       2200.       2492.    
        2470.       2457.       2529.       2506.       2460.       2374.       2288.       2270.       2290.       2276.    
        2305.       2258.       2264.       2210.       2253.       2340.       2365.       2295.       2109.       1982.    
        2164.       2462.       2697.       2793.       2748.       2788.       2798.       2713.       2562.       2490.    
        2634.       2635.       2485.       2444.       2423.       2417.       2561.       2605.       2589.       2646.    
        2490.       2438.       2348.       2638.       2599.       2475.       2350.       2222.       2091.       1958.    
        1822.       1684.       1544.       1401.       1255.       1106.    
  67    2102.       2110.       2120.       2129.       2139.       2148.       2156.       2163.       2171.       2180.    
        2187.       2194.       2201.       2208.       2217.       2226.       2357.       2362.       2596.       2434.    
        2433.       2413.       2452.       2567.       2523.       2358.       2251.       2205.       2238.       2289.    
        2244.       2235.       2289.       2283.       2180.       2165.       2161.       2181.       2096.       1983.    
        2154.       2579.       2704.       2683.       2629.       2649.       2648.       2572.       2524.       2414.    
        2449.       2385.       2360.       2354.       2391.       2444.       2414.       2425.       2460.       2477.    
        2416.       2273.       2422.       2650.       2533.       2413.       2290.       2165.       2038.       1908.    
        1776.       1641.       1504.       1364.       1222.       1076.    
  68    2112.       2119.       2127.       2134.       2142.       2150.       2158.       2165.       2171.       2177.    
        2183.       2189.       2194.       2199.       2205.       2212.       2376.       2204.       2638.       2397.    
        2405.       2381.       2439.       2601.       2540.       2442.       2259.       2171.       2209.       2414.    
        2237.       2216.       2339.       2268.       2220.       2104.       2260.       2415.       2247.       1988.    
        2140.       2523.       2552.       2548.       2508.       2494.       2462.       2397.       2350.       2324.    
        2309.       2344.       2352.       2451.       2542.       2606.       2483.       2332.       2345.       2426.    
        2365.       2260.       2539.       2581.       2467.       2351.       2232.       2110.       1986.       1859.    
        1730.       1599.       1465.       1328.       1189.       1046.    
  69    2121.       2127.       2134.       2141.       2147.       2153.       2158.       2165.       2170.       2175.    
        2179.       2183.       2186.       2190.       2194.       2202.       2345.       2007.       2332.       2359.    
        2469.       2364.       2396.       2510.       2509.       2469.       2393.       2260.       2169.       2343.    
        2300.       2238.       2499.       2249.       2177.       2112.       2253.       2329.       2214.       1988.    
        2102.       2371.       2379.       2386.       2373.       2347.       2292.       2259.       2265.       2269.    
        2310.       2430.       2454.       2469.       2398.       2393.       2488.       2375.       2252.       2316.    
        2372.       2309.       2622.       2514.       2403.       2289.       2173.       2055.       1934.       1811.    
        1685.       1557.       1426.       1292.       1155.       1016.    
  70    2129.       2135.       2141.       2146.       2152.       2157.       2161.       2165.       2168.       2171.    
        2174.       2177.       2180.       2181.       2183.       2254.       2257.       2625.       2325.       2323.    
        2437.       2422.       2330.       2373.       2375.       2347.       2345.       2327.       2231.       2175.    
        2223.       2223.       2444.       2254.       2153.       2099.       2114.       2095.       1999.       1991.    
        2058.       2206.       2225.       2259.       2261.       2240.       2231.       2333.       2435.       2421.    
        2492.       2580.       2561.       2531.       2471.       2379.       2296.       2347.       2280.       2308.    
        2207.       2407.       2553.       2447.       2339.       2229.       2116.       2001.       1883.       1763.    
        1640.       1514.       1386.       1256.       1123.       986.8    
  71    2137.       2142.       2147.       2152.       2156.       2160.       2163.       2166.       2169.       2170.    
        2170.       2170.       2171.       2173.       2174.       2285.       2102.       2707.       2283.       2287.    
        2313.       2328.       2288.       2323.       2262.       2269.       2259.       2247.       2236.       2246.    
        2175.       2191.       2383.       2284.       2179.       2077.       2022.       1999.       2006.       2040.    
        2112.       2209.       2242.       2267.       2205.       2221.       2364.       2430.       2441.       2438.    
        2417.       2456.       2423.       2382.       2355.       2359.       2371.       2256.       2268.       2309.    
        2212.       2486.       2485.       2382.       2277.       2170.       2060.       1948.       1832.       1715.    
        1595.       1473.       1348.       1220.       1091.       960.0    
  72    2140.       2145.       2150.       2155.       2160.       2163.       2165.       2166.       2167.       2167.    
        2167.       2166.       2164.       2163.       2164.       2267.       1910.       2218.       2249.       2253.    
        2248.       2266.       2260.       2301.       2272.       2199.       2209.       2183.       2175.       2144.    
        2157.       2124.       2261.       2224.       2124.       2057.       1998.       2029.       2083.       2128.    
        2271.       2292.       2224.       2195.       2219.       2292.       2332.       2335.       2318.       2320.    
        2357.       2396.       2400.       2392.       2367.       2338.       2333.       2187.       2269.       2223.    
        2281.       2515.       2418.       2318.       2216.       2112.       2005.       1895.       1784.       1669.    
        1553.       1435.       1314.       1190.       1064.       934.6    
  73    2149.       2152.       2154.       2157.       2160.       2164.       2166.       2167.       2167.       2165.    
        2163.       2161.       2158.       2155.       2177.       2190.       2615.       2247.       2217.       2221.    
        2225.       2231.       2232.       2279.       2256.       2190.       2153.       2144.       2129.       2218.    
        2224.       2086.       2131.       2112.       2067.       2015.       2017.       2077.       2141.       2229.    
        2274.       2325.       2237.       2159.       2261.       2354.       2364.       2308.       2271.       2297.    
        2317.       2343.       2339.       2363.       2377.       2401.       2292.       2218.       2269.       2161.    
        2384.       2447.       2353.       2256.       2157.       2056.       1952.       1846.       1739.       1628.    
        1515.       1399.       1280.       1159.       1035.       908.2    
  74    2156.       2159.       2162.       2163.       2164.       2164.       2166.       2167.       2166.       2164.    
        2161.       2158.       2154.       2150.       2216.       2051.       2768.       2187.       2187.       2191.    
        2193.       2200.       2209.       2252.       2237.       2173.       2145.       2135.       2150.       2223.    
        2236.       2201.       2083.       2093.       2063.       1991.       2018.       2128.       2170.       2274.    
        2320.       2270.       2208.       2152.       2241.       2263.       2263.       2232.       2236.       2251.    
        2263.       2287.       2312.       2334.       2324.       2373.       2237.       2256.       2192.       2176.    
        2469.       2380.       2289.       2196.       2101.       2004.       1904.       1801.       1695.       1587.    
        1476.       1362.       1246.       1128.       1007.       884.0    
  75    2163.       2164.       2167.       2169.       2170.       2170.       2168.       2166.       2164.       2162.    
        2159.       2155.       2150.       2146.       2213.       1872.       2148.       2160.       2160.       2165.    
        2166.       2165.       2196.       2227.       2215.       2151.       2137.       2138.       2174.       2205.    
        2201.       2144.       2239.       2272.       2211.       2077.       2032.       2101.       2173.       2289.    
        2231.       2192.       2180.       2149.       2156.       2200.       2200.       2180.       2206.       2210.    
        2236.       2249.       2273.       2325.       2288.       2335.       2188.       2239.       2128.       2255.    
        2403.       2318.       2231.       2141.       2048.       1953.       1855.       1754.       1651.       1546.    
        1438.       1328.       1215.       1100.       981.9       861.1    
  76    2171.       2170.       2171.       2172.       2172.       2173.       2172.       2170.       2166.       2161.    
        2156.       2152.       2147.       2143.       2157.       2567.       2202.       2136.       2137.       2142.    
        2127.       2149.       2188.       2205.       2177.       2124.       2110.       2129.       2154.       2155.    
        2138.       2184.       2200.       2157.       2105.       2027.       2017.       2115.       2216.       2215.    
        2155.       2151.       2169.       2151.       2119.       2145.       2147.       2158.       2187.       2208.    
        2210.       2260.       2248.       2275.       2254.       2296.       2149.       2227.       2125.       2343.    
        2341.       2258.       2173.       2085.       1995.       1902.       1807.       1710.       1610.       1507.    
        1402.       1295.       1185.       1072.       956.9       838.8    
  77    2181.       2180.       2176.       2176.       2175.       2174.       2173.       2171.       2168.       2163.    
        2157.       2151.       2144.       2174.       2038.       2827.       2127.       2115.       2117.       2123.    
        2124.       2147.       2167.       2186.       2135.       2104.       2097.       2101.       2106.       2114.    
        2127.       2132.       2103.       2118.       2108.       2018.       1970.       2086.       2139.       2131.    
        2100.       2109.       2151.       2140.       2114.       2106.       2124.       2135.       2152.       2195.    
        2184.       2249.       2201.       2218.       2236.       2259.       2191.       2120.       2148.       2357.    
        2279.       2199.       2116.       2032.       1944.       1854.       1762.       1668.       1570.       1471.    
        1368.       1263.       1156.       1046.       933.2       818.1    
  78    2188.       2188.       2187.       2183.       2181.       2179.       2177.       2173.       2169.       2164.    
        2159.       2153.       2145.       2185.       1876.       2121.       2095.       2097.       2101.       2109.    
        2120.       2133.       2149.       2165.       2115.       2084.       2071.       2071.       2058.       2055.    
        2055.       2046.       2046.       2137.       2240.       2110.       1968.       2049.       2083.       2072.    
        2058.       2092.       2133.       2133.       2118.       2087.       2097.       2113.       2121.       2171.    
        2174.       2192.       2211.       2229.       2221.       2223.       2192.       2119.       2223.       2296.    
        2220.       2142.       2062.       1980.       1896.       1809.       1719.       1627.       1532.       1435.    
        1335.       1233.       1128.       1021.       911.1       798.7    
  79    2194.       2193.       2191.       2190.       2186.       2182.       2179.       2175.       2171.       2166.    
        2160.       2153.       2147.       2148.       2482.       2188.       2078.       2082.       2088.       2098.    
        2107.       2120.       2133.       2136.       2078.       2068.       2078.       2108.       2103.       2078.    
        2067.       2050.       2028.       2064.       2142.       2135.       1962.       2010.       2038.       2035.    
        2047.       2086.       2115.       2116.       2109.       2084.       2072.       2092.       2123.       2161.    
        2158.       2140.       2185.       2212.       2197.       2187.       2142.       2093.       2306.       2235.    
        2164.       2089.       2011.       1931.       1849.       1764.       1678.       1588.       1496.       1402.    
        1304.       1205.       1103.       998.1       890.9       781.2    
  80    2201.       2199.       2197.       2195.       2193.       2189.       2182.       2178.       2174.       2168.    
        2162.       2155.       2157.       2050.       2881.       2106.       2065.       2070.       2078.       2090.    
        2097.       2108.       2121.       2123.       2108.       2122.       2169.       2259.       2304.       2263.    
        2253.       2202.       2164.       2160.       2049.       2044.       2007.       1951.       2029.       2071.    
        2078.       2088.       2101.       2104.       2100.       2087.       2053.       2071.       2112.       2136.    
        2157.       2139.       2148.       2189.       2160.       2151.       2097.       2121.       2249.       2179.    
        2109.       2038.       1963.       1885.       1805.       1723.       1638.       1551.       1461.       1370.    
        1276.       1179.       1079.       977.2       872.6       765.6    
  81    2208.       2206.       2202.       2199.       2196.       2193.       2189.       2181.       2174.       2169.    
        2163.       2155.       2175.       1905.       2129.       2047.       2054.       2062.       2072.       2077.    
        2098.       2094.       2112.       2116.       2168.       2240.       2257.       2250.       2301.       2264.    
        2259.       2178.       2154.       2095.       2011.       2004.       1986.       1922.       2014.       2062.    
        2089.       2091.       2089.       2094.       2090.       2083.       2045.       2067.       2098.       2105.    
        2142.       2150.       2128.       2128.       2125.       2117.       2114.       2210.       2194.       2127.    
        2059.       1988.       1916.       1842.       1764.       1684.       1602.       1517.       1430.       1340.    
        1248.       1154.       1057.       958.0       856.4       752.0    
  82    2210.       2208.       2206.       2203.       2199.       2195.       2190.       2186.       2178.       2170.    
        2163.       2157.       2150.       2365.       2195.       2036.       2046.       2056.       2069.       2074.    
        2097.       2088.       2104.       2149.       2259.       2328.       2216.       2175.       2177.       2147.    
        2124.       2099.       2082.       2036.       1971.       1984.       1933.       1914.       1996.       2058.    
        2076.       2077.       2079.       2083.       2081.       2072.       2036.       2055.       2080.       2092.    
        2120.       2137.       2155.       2130.       2104.       2089.       2070.       2206.       2143.       2078.    
        2011.       1943.       1872.       1799.       1726.       1649.       1569.       1486.       1401.       1314.    
        1224.       1132.       1037.       940.3       840.9       739.5    
  83    2215.       2210.       2206.       2203.       2200.       2197.       2193.       2187.       2182.       2175.    
        2167.       2159.       2070.       2919.       2106.       2027.       2039.       2053.       2067.       2099.    
        2097.       2098.       2131.       2215.       2337.       2244.       2159.       2124.       2095.       2083.    
        2049.       2028.       2002.       1998.       1940.       1903.       1931.       1992.       2013.       2060.    
        2059.       2064.       2068.       2073.       2071.       2061.       2025.       2055.       2068.       2088.    
        2091.       2108.       2126.       2103.       2097.       2103.       2095.       2157.       2095.       2032.    
        1967.       1900.       1832.       1761.       1687.       1614.       1538.       1458.       1376.       1291.    
        1203.       1114.       1021.       926.6       829.6       730.3    
  84    2217.       2213.       2208.       2204.       2200.       2196.       2192.       2188.       2183.       2178.    
        2172.       2174.       1943.       2156.       2021.       2021.       2037.       2053.       2047.       2103.    
        2098.       2110.       2157.       2305.       2363.       2235.       2171.       2121.       2084.       2056.    
        2022.       2006.       2004.       1958.       1904.       1943.       1993.       1995.       2023.       2057.    
        2057.       2054.       2056.       2064.       2062.       2050.       2027.       2051.       2060.       2070.    
        2072.       2094.       2093.       2083.       2071.       2096.       2166.       2110.       2052.       1989.    
        1927.       1863.       1796.       1727.       1656.       1583.       1507.       1432.       1353.       1270.    
        1185.       1098.       1008.       916.0       821.3       724.3    
  85    2220.       2215.       2212.       2207.       2201.       2196.       2191.       2186.       2181.       2177.    
        2174.       2162.       2225.       2208.       1997.       2016.       2034.       2051.       2073.       2091.    
        2097.       2116.       2159.       2337.       2392.       2257.       2146.       2125.       2076.       2045.    
        2014.       1979.       1968.       1929.       1898.       1963.       1988.       1996.       2041.       2048.    
        2049.       2045.       2046.       2056.       2054.       2027.       2030.       2039.       2033.       2046.    
        2063.       2072.       2055.       2057.       2063.       2044.       2120.       2066.       2010.       1952.    
        1889.       1827.       1762.       1696.       1627.       1556.       1483.       1407.       1331.       1253.    
        1170.       1085.       997.7       907.8       815.5       720.8    
  86    2223.       2217.       2212.       2208.       2204.       2198.       2191.       2186.       2180.       2175.    
        2171.       2094.       2941.       2118.       1990.       2011.       2031.       2031.       2111.       2088.    
        2095.       2084.       2214.       2322.       2360.       2233.       2111.       2140.       2098.       2058.    
        2038.       2017.       1981.       1921.       1890.       1974.       1983.       2015.       2042.       2040.    
        2042.       2039.       2035.       2049.       2042.       2002.       2036.       2020.       2011.       2026.    
        2041.       2046.       2037.       2033.       2042.       2103.       2077.       2025.       1971.       1915.    
        1858.       1794.       1732.       1667.       1601.       1532.       1461.       1387.       1312.       1234.    
        1156.       1075.       989.8       902.4       812.7       720.6    
  87    2229.       2219.       2213.       2208.       2203.       2198.       2193.       2186.       2180.       2174.    
        2170.       1977.       2193.       2015.       1987.       2009.       2030.       2050.       2093.       2085.    
        2096.       2156.       2169.       2259.       2308.       2147.       2039.       2046.       2072.       2043.    
        1996.       1967.       1966.       1907.       1894.       1976.       1981.       2022.       2034.       2032.    
        2034.       2022.       2037.       2038.       2019.       1999.       2032.       2016.       2003.       2016.    
        2030.       2023.       2023.       2022.       2031.       2087.       2038.       1988.       1935.       1881.    
        1826.       1768.       1705.       1642.       1577.       1511.       1442.       1370.       1297.       1221.    
        1143.       1064.       984.0       899.2       811.7       721.9    
  88    2232.       2224.       2215.       2208.       2202.       2196.       2192.       2186.       2181.       2175.    
        2160.       2070.       2218.       1956.       1982.       2010.       2031.       2078.       2063.       2084.    
        2093.       2110.       2138.       2143.       2230.       2184.       2051.       2001.       1987.       1968.    
        1992.       1968.       1918.       1887.       1897.       1971.       1989.       2026.       2025.       2018.    
        2023.       1999.       2028.       2017.       1980.       2012.       2015.       1996.       2005.       2020.    
        2026.       2014.       2014.       2022.       2019.       2049.       2003.       1954.       1904.       1852.    
        1798.       1742.       1685.       1621.       1557.       1493.       1426.       1357.       1285.       1212.    
        1136.       1058.       977.7       897.1       813.7       726.2    
  89    2235.       2228.       2221.       2211.       2202.       2196.       2191.       2185.       2179.       2176.    
        2105.       2926.       2121.       1947.       1980.       2008.       2000.       2118.       2057.       2079.    
        2090.       2106.       2112.       2087.       2209.       2172.       2048.       2018.       1989.       1953.    
        1933.       1918.       1907.       1882.       1907.       1969.       1994.       2015.       1994.       1982.    
        1988.       1972.       1995.       1977.       1986.       2005.       1990.       2016.       2030.       2027.    
        2011.       2003.       2009.       2018.       2058.       2016.       1971.       1925.       1876.       1826.    
        1774.       1720.       1665.       1607.       1542.       1479.       1414.       1347.       1277.       1206.    
        1132.       1056.       977.5       896.8       814.6       731.8    
  90    2238.       2231.       2224.       2216.       2207.       2197.       2190.       2184.       2179.       2176.    
        2005.       2228.       2011.       1942.       1976.       2004.       2047.       2074.       2054.       2073.    
        2086.       2100.       2072.       2057.       2119.       2200.       2157.       2046.       2002.       1974.    
        1958.       1912.       1882.       1886.       1912.       1963.       1979.       1953.       1923.       1925.    
        1939.       1952.       1951.       1960.       1978.       1984.       1994.       2015.       2030.       2019.    
        2008.       1996.       1996.       2001.       2027.       1987.       1944.       1900.       1853.       1804.    
        1753.       1701.       1647.       1592.       1534.       1469.       1406.       1341.       1273.       1203.    
        1131.       1057.       980.7       902.1       821.3       738.3    
  91    2238.       2229.       2223.       2215.       2207.       2198.       2188.       2180.       2173.       2160.    
        1951.       2223.       1922.       1938.       1973.       1976.       2098.       2025.       2049.       2067.    
        2084.       2081.       2037.       2022.       2117.       2246.       2231.       2052.       1977.       1957.    
        1940.       1921.       1872.       1880.       1920.       1959.       1941.       1912.       1972.       1986.    
        1984.       1957.       1986.       1957.       1986.       2014.       2020.       2015.       2018.       2006.    
        2000.       1992.       1988.       2028.       1998.       1960.       1921.       1879.       1834.       1787.    
        1738.       1687.       1635.       1581.       1525.       1468.       1402.       1338.       1273.       1206.    
        1136.       1064.       988.8       911.8       832.8       752.0    
  92    2237.       2228.       2219.       2212.       2204.       2196.       2188.       2177.       2170.       2111.    
        2891.       2123.       1896.       1935.       1970.       2023.       2091.       1995.       2042.       2062.    
        2084.       2027.       2009.       2003.       2146.       2215.       2096.       2020.       1955.       1938.    
        1915.       1900.       1864.       1874.       1937.       1947.       1907.       1976.       1994.       2024.    
        2028.       1995.       2018.       2009.       2008.       2024.       2038.       2031.       2031.       2017.    
        2011.       1991.       1986.       2009.       1975.       1938.       1900.       1861.       1819.       1775.    
        1727.       1678.       1627.       1574.       1520.       1463.       1406.       1340.       1275.       1210.    
        1143.       1073.       1001.       926.3       849.6       770.4    
  93    2237.       2227.       2217.       2208.       2201.       2192.       2185.       2177.       2168.       2019.    
        2254.       2005.       1889.       1933.       1963.       1999.       2035.       1997.       2036.       2059.    
        2076.       1990.       1984.       1981.       2101.       2203.       2094.       2031.       1989.       1972.    
        1916.       1888.       1885.       1863.       1925.       1913.       1934.       2033.       2035.       2051.    
        2048.       2024.       2018.       2029.       2027.       2022.       2029.       2042.       2045.       2031.    
        2012.       1991.       1999.       1989.       1956.       1921.       1884.       1846.       1806.       1765.    
        1721.       1673.       1623.       1572.       1519.       1464.       1407.       1350.       1284.       1218.    
        1152.       1084.       1014.       941.7       867.3       790.6    
  94    2236.       2225.       2215.       2205.       2196.       2187.       2182.       2174.       2162.       1933.    
        2214.       1899.       1885.       1931.       1939.       2097.       1978.       1998.       2032.       2045.    
        2000.       1967.       1964.       1962.       2017.       2174.       2101.       2048.       2067.       2037.    
        1951.       1931.       1907.       1854.       1914.       1893.       1904.       1949.       1997.       2030.    
        2044.       2052.       2040.       2040.       2045.       2038.       2031.       2043.       2056.       2046.    
        2010.       1993.       2002.       1973.       1942.       1908.       1873.       1837.       1798.       1758.    
        1717.       1672.       1624.       1574.       1522.       1469.       1414.       1357.       1299.       1233.    
        1167.       1100.       1032.       961.2       888.4       813.3    
  95    2234.       2223.       2212.       2201.       2191.       2181.       2173.       2167.       2119.       2835.    
        2118.       1840.       1884.       1925.       1987.       2052.       1935.       1996.       2030.       2062.    
        1951.       1951.       1944.       1953.       1991.       2132.       2212.       2100.       2017.       2041.    
        1978.       1927.       1882.       1848.       1911.       1877.       1932.       1977.       2003.       2015.    
        2024.       2037.       2066.       2070.       2078.       2063.       2046.       2050.       2044.       2021.    
        2008.       2006.       1988.       1960.       1931.       1900.       1867.       1832.       1795.       1756.    
        1715.       1673.       1629.       1582.       1531.       1479.       1426.       1370.       1313.       1254.    
        1188.       1121.       1054.       984.9       914.0       840.9    
  96    2231.       2219.       2208.       2196.       2186.       2175.       2165.       2158.       2034.       2257.    
        2003.       1835.       1885.       1895.       2046.       1989.       1927.       1996.       2029.       2037.    
        1905.       1940.       1938.       1946.       1988.       2152.       2137.       2037.       1993.       1990.    
        1995.       1925.       1865.       1853.       1872.       1943.       1963.       1997.       1990.       2026.    
        2061.       2072.       2161.       2170.       2212.       2143.       2133.       2104.       2045.       2021.    
        2023.       2005.       1981.       1954.       1926.       1896.       1865.       1831.       1796.       1759.    
        1719.       1678.       1634.       1590.       1544.       1493.       1442.       1387.       1331.       1273.    
        1215.       1149.       1081.       1014.       943.9       872.2    
  97    2228.       2215.       2203.       2191.       2180.       2169.       2159.       2149.       1940.       2204.    
        1892.       1836.       1888.       1955.       2057.       1930.       1937.       1996.       2015.       1971.    
        1904.       1930.       1921.       1939.       2002.       2163.       2139.       2049.       1984.       1968.    
        1934.       1937.       1866.       1840.       1862.       1970.       1999.       2024.       2017.       2079.    
        2184.       2208.       2252.       2246.       2243.       2229.       2229.       2208.       2072.       2012.    
        2013.       1996.       1976.       1952.       1927.       1898.       1868.       1836.       1803.       1767.    
        1729.       1689.       1647.       1603.       1558.       1511.       1460.       1408.       1354.       1297.    
        1239.       1180.       1116.       1047.       979.4       909.8    
  98    2224.       2210.       2198.       2186.       2175.       2164.       2153.       2119.       2754.       2108.    
        1807.       1838.       1882.       1878.       2005.       1882.       1945.       1998.       2046.       1928.    
        1916.       1919.       1910.       1936.       1999.       2168.       2147.       2079.       1968.       1977.    
        1934.       1899.       1867.       1838.       1934.       1968.       2014.       2043.       2059.       2172.    
        2249.       2233.       2209.       2218.       2231.       2207.       2178.       2207.       2091.       2013.    
        1993.       1984.       1969.       1951.       1928.       1900.       1877.       1846.       1814.       1780.    
        1744.       1706.       1666.       1623.       1579.       1533.       1485.       1433.       1381.       1327.    
        1270.       1210.       1150.       1085.       1016.       948.5    
  99    2221.       2207.       2194.       2181.       2168.       2156.       2144.       2041.       2240.       1997.    
        1782.       1842.       1890.       2053.       1945.       1856.       1955.       1964.       1983.       1902.    
        1921.       1899.       1920.       1948.       2010.       2067.       2101.       1994.       1962.       1957.    
        1966.       1910.       1864.       1868.       1955.       1985.       2001.       2045.       2120.       2135.    
        2210.       2227.       2193.       2185.       2209.       2191.       2152.       2209.       2170.       2047.    
        1975.       1968.       1960.       1947.       1929.       1907.       1880.       1849.       1828.       1798.    
        1763.       1726.       1688.       1647.       1604.       1560.       1513.       1465.       1413.       1360.    
        1305.       1248.       1188.       1129.       1062.       991.8    
 100    2216.       2201.       2187.       2173.       2160.       2147.       2134.       1946.       2184.       1886.    
        1783.       1841.       1916.       2011.       1891.       1880.       1968.       2010.       1954.       1900.    
        1919.       1917.       1938.       1970.       1992.       1975.       1985.       1994.       1972.       1937.    
        1998.       1991.       1873.       1915.       2010.       1994.       2011.       2098.       2060.       2061.    
        2168.       2201.       2191.       2145.       2184.       2167.       2152.       2200.       2218.       1966.    
        1958.       1950.       1943.       1936.       1930.       1912.       1890.       1865.       1834.       1798.    
        1777.       1752.       1715.       1676.       1635.       1591.       1546.       1499.       1449.       1398.    
        1344.       1289.       1231.       1172.       1112.       1043.    
 101    2209.       2194.       2179.       2165.       2151.       2137.       2119.       2658.       2094.       1792.    
        1790.       1815.       1982.       1956.       1848.       1907.       1960.       2008.       1936.       1915.    
        1917.       1940.       1954.       1978.       2025.       1982.       1946.       1974.       1949.       1965.    
        2013.       1999.       1858.       1955.       2030.       1999.       1996.       2043.       2028.       2117.    
        2177.       2199.       2174.       2132.       2154.       2121.       2161.       2243.       2118.       1951.    
        1942.       1933.       1925.       1918.       1912.       1906.       1900.       1878.       1853.       1823.    
        1789.       1749.       1725.       1708.       1670.       1628.       1584.       1539.       1490.       1440.    
        1389.       1334.       1278.       1220.       1161.       1100.    
 102    2202.       2186.       2170.       2155.       2141.       2126.       2048.       2216.       1990.       1740.    
        1798.       1872.       2005.       1904.       1822.       1930.       1951.       1978.       1939.       1951.    
        1944.       1943.       1969.       1985.       1977.       2001.       1977.       1931.       1927.       1948.    
        1990.       1968.       1873.       1956.       2009.       1982.       1994.       1980.       2042.       2067.    
        2176.       2183.       2189.       2144.       2090.       2092.       2199.       2238.       1946.       1936.    
        1927.       1918.       1910.       1902.       1895.       1888.       1882.       1876.       1868.       1844.    
        1815.       1781.       1743.       1699.       1673.       1660.       1629.       1584.       1538.       1488.    
        1437.       1385.       1330.       1273.       1215.       1156.    
 103    2193.       2176.       2160.       2145.       2130.       2115.       1951.       2158.       1887.       1740.    
        1799.       1808.       1960.       1861.       1824.       1940.       2014.       1965.       1989.       1989.    
        1978.       1972.       1978.       1952.       1950.       1984.       1971.       1948.       1897.       1920.    
        1980.       2037.       1895.       1889.       1967.       1937.       1972.       1981.       1997.       2079.    
        2171.       2152.       2170.       2172.       2055.       2129.       2240.       2050.       1933.       1923.    
        1913.       1904.       1895.       1887.       1879.       1872.       1865.       1858.       1851.       1843.    
        1838.       1810.       1777.       1739.       1697.       1649.       1619.       1609.       1588.       1542.    
        1492.       1440.       1387.       1333.       1275.       1216.    
 104    2183.       2166.       2150.       2134.       2118.       2102.       2547.       2074.       1794.       1752.    
        1852.       1986.       1913.       1830.       1875.       1896.       1986.       1994.       1991.       2001.    
        2014.       2010.       1980.       1935.       1931.       1968.       1941.       2003.       1931.       1910.    
        2020.       2055.       1891.       1848.       1901.       1968.       2066.       2078.       2086.       2105.    
        2152.       2125.       2113.       2102.       2076.       2185.       2188.       1931.       1921.       1910.    
        1900.       1891.       1882.       1873.       1865.       1857.       1850.       1842.       1835.       1827.    
        1819.       1813.       1807.       1775.       1738.       1696.       1650.       1598.       1565.       1555.    
        1541.       1501.       1448.       1394.       1339.       1282.    
 105    2173.       2155.       2138.       2121.       2104.       2054.       2181.       1982.       1724.       1763.    
        1837.       1953.       1873.       1810.       1905.       1957.       1982.       1965.       1967.       1995.    
        2034.       2075.       1995.       1944.       1917.       1920.       1893.       1943.       1924.       1897.    
        2025.       2006.       1849.       1858.       2010.       2049.       2098.       2108.       2064.       2086.    
        2116.       2136.       2113.       2084.       2132.       2164.       1947.       1920.       1909.       1898.    
        1888.       1878.       1869.       1860.       1851.       1843.       1835.       1827.       1820.       1812.    
        1803.       1795.       1789.       1783.       1777.       1740.       1699.       1654.       1603.       1547.    
        1511.       1500.       1491.       1462.       1408.       1352.    
 106    2161.       2142.       2124.       2107.       2090.       1956.       2123.       1889.       1711.       1751.    
        1913.       1912.       1844.       1803.       1878.       1983.       1959.       1945.       1966.       1995.    
        2012.       2051.       1973.       1944.       1916.       1891.       1878.       1871.       1898.       1868.    
        1959.       1902.       1809.       1893.       2015.       2060.       2092.       2079.       2045.       2095.    
        2112.       2118.       2125.       2102.       2094.       2130.       1921.       1909.       1898.       1887.    
        1877.       1866.       1857.       1847.       1838.       1830.       1821.       1813.       1805.       1797.    
        1789.       1780.       1772.       1764.       1758.       1753.       1746.       1705.       1660.       1610.    
        1556.       1496.       1456.       1444.       1437.       1418.    
 107    2147.       2128.       2110.       2092.       2074.       2424.       2047.       1807.       1728.       1789.    
        1934.       1877.       1826.       1851.       1908.       1958.       1943.       1929.       1954.       1967.    
        1977.       1973.       1972.       1943.       1937.       1930.       1905.       1864.       1839.       1858.    
        1906.       1835.       1800.       1951.       2067.       2094.       2062.       2014.       2035.       2099.    
        2115.       2074.       2091.       2067.       2089.       2000.       1910.       1899.       1888.       1877.    
        1866.       1855.       1845.       1835.       1826.       1817.       1808.       1799.       1791.       1783.    
        1775.       1766.       1756.       1748.       1741.       1734.       1728.       1724.       1715.       1670.    
        1621.       1567.       1509.       1445.       1400.       1386.    
 108    2132.       2113.       2094.       2075.       2053.       2133.       1968.       1740.       1742.       1791.    
        1899.       1851.       1821.       1862.       1934.       1933.       1917.       1934.       1959.       1971.    
        1924.       1907.       1909.       1939.       1945.       1911.       1885.       1861.       1833.       1848.    
        1872.       1805.       1834.       2056.       2087.       2070.       2021.       2002.       2043.       2072.    
        2103.       2075.       2054.       2045.       2073.       1912.       1900.       1889.       1878.       1866.    
        1855.       1845.       1834.       1824.       1814.       1804.       1795.       1786.       1777.       1769.    
        1760.       1752.       1742.       1733.       1724.       1717.       1710.       1704.       1697.       1696.    
        1684.       1636.       1582.       1525.       1462.       1392.    
 109    2116.       2095.       2076.       2058.       1958.       2079.       1893.       1705.       1773.       1900.    
        1868.       1839.       1830.       1850.       1899.       1909.       1904.       1921.       1937.       1956.    
        1905.       1874.       1868.       1878.       1912.       1898.       1875.       1850.       1831.       1828.    
        1841.       1792.       1879.       2074.       2050.       1992.       1963.       1986.       2016.       2065.    
        2072.       2050.       2042.       2034.       1930.       1903.       1891.       1880.       1868.       1857.    
        1845.       1834.       1824.       1813.       1803.       1793.       1783.       1774.       1765.       1755.    
        1746.       1738.       1729.       1718.       1710.       1701.       1693.       1686.       1679.       1672.    
        1666.       1668.       1654.       1602.       1545.       1482.    
 110    2097.       2077.       2058.       2039.       2291.       2014.       1825.       1720.       1764.       1873.    
        1848.       1841.       1850.       1868.       1885.       1888.       1907.       1937.       1958.       1943.    
        1916.       1881.       1847.       1833.       1888.       1910.       1885.       1857.       1840.       1812.    
        1822.       1789.       1873.       1928.       1913.       1923.       1996.       2022.       2056.       2077.    
        2055.       2017.       2000.       2012.       1906.       1895.       1882.       1870.       1859.       1847.    
        1836.       1825.       1814.       1803.       1792.       1782.       1772.       1762.       1752.       1743.    
        1733.       1724.       1715.       1705.       1695.       1686.       1677.       1669.       1661.       1654.    
        1648.       1641.       1635.       1640.       1624.       1567.    
 111    2078.       2058.       2038.       2019.       2075.       1947.       1770.       1727.       1833.       1847.    
        1843.       1859.       1866.       1866.       1874.       1900.       1927.       1937.       1934.       1880.    
        1888.       1859.       1852.       1817.       1852.       1883.       1837.       1801.       1815.       1785.    
        1783.       1792.       1830.       1871.       2007.       2032.       2076.       2077.       2054.       2037.    
        2037.       2031.       1996.       1910.       1897.       1886.       1872.       1860.       1849.       1838.    
        1826.       1815.       1804.       1793.       1782.       1771.       1761.       1750.       1741.       1731.    
        1721.       1712.       1702.       1693.       1682.       1672.       1663.       1654.       1645.       1637.    
        1630.       1623.       1616.       1610.       1604.       1612.    
 112    2057.       2036.       2016.       1958.       2022.       1887.       1735.       1721.       1834.       1835.    
        1827.       1849.       1856.       1863.       1893.       1897.       1892.       1883.       1908.       1861.    
        1869.       1864.       1833.       1805.       1807.       1853.       1812.       1791.       1771.       1777.    
        1797.       1814.       1828.       1889.       2008.       2060.       2042.       2071.       2037.       2020.    
        2001.       2016.       1982.       1902.       1889.       1877.       1863.       1851.       1839.       1828.    
        1816.       1805.       1794.       1783.       1772.       1761.       1750.       1740.       1729.       1719.    
        1709.       1699.       1690.       1680.       1670.       1658.       1649.       1640.       1630.       1621.    
        1613.       1606.       1599.       1592.       1585.       1579.    
 113    2033.       2013.       1994.       2150.       1964.       1839.       1738.       1774.       1815.       1809.    
        1834.       1834.       1851.       1880.       1886.       1867.       1874.       1866.       1879.       1844.    
        1851.       1830.       1862.       1822.       1784.       1816.       1801.       1768.       1768.       1804.    
        1854.       1887.       1871.       1907.       1961.       1965.       2017.       2044.       2032.       2000.    
        1979.       1998.       1907.       1894.       1881.       1868.       1855.       1842.       1830.       1818.    
        1807.       1796.       1784.       1774.       1763.       1751.       1740.       1729.       1718.       1708.    
        1698.       1688.       1678.       1668.       1658.       1647.       1635.       1626.       1617.       1606.    
        1597.       1589.       1582.       1575.       1567.       1560.    
 114    2007.       1988.       1969.       1998.       1912.       1804.       1736.       1782.       1806.       1820.    
        1824.       1838.       1875.       1883.       1865.       1836.       1843.       1841.       1870.       1844.    
        1849.       1817.       1843.       1816.       1785.       1782.       1771.       1757.       1799.       1842.    
        1852.       1862.       1878.       1892.       1921.       1982.       2000.       2037.       2021.       2006.    
        2004.       1993.       1899.       1886.       1873.       1860.       1847.       1834.       1822.       1809.    
        1797.       1786.       1775.       1763.       1752.       1742.       1731.       1719.       1708.       1697.    
        1687.       1677.       1666.       1656.       1646.       1636.       1624.       1613.       1603.       1594.    
        1583.       1574.       1565.       1558.       1550.       1543.    
 115    1981.       1961.       1939.       1948.       1869.       1787.       1750.       1768.       1801.       1806.    
        1819.       1856.       1867.       1850.       1849.       1836.       1815.       1820.       1850.       1834.    
        1810.       1791.       1788.       1795.       1769.       1748.       1756.       1791.       1826.       1858.    
        1874.       1884.       1903.       1918.       1933.       2008.       2024.       2037.       2026.       2009.    
        1992.       1904.       1892.       1878.       1865.       1853.       1841.       1826.       1814.       1801.    
        1789.       1777.       1765.       1755.       1743.       1731.       1720.       1710.       1698.       1687.    
        1676.       1666.       1655.       1645.       1634.       1624.       1614.       1601.       1591.       1581.    
        1571.       1560.       1551.       1542.       1534.       1527.    
 116    1952.       1931.       2000.       1900.       1837.       1795.       1781.       1774.       1784.       1810.    
        1848.       1865.       1855.       1821.       1818.       1813.       1793.       1800.       1821.       1835.    
        1777.       1769.       1755.       1763.       1743.       1751.       1785.       1822.       1841.       1859.    
        1881.       1901.       1909.       1936.       1979.       2020.       1992.       1986.       1984.       2004.    
        2001.       1896.       1883.       1871.       1858.       1845.       1833.       1818.       1806.       1793.    
        1781.       1768.       1756.       1745.       1734.       1722.       1711.       1699.       1688.       1677.    
        1666.       1655.       1644.       1634.       1623.       1613.       1602.       1591.       1578.       1568.    
        1559.       1548.       1537.       1528.       1519.       1511.    
 117    1918.       1897.       1902.       1857.       1821.       1810.       1798.       1775.       1794.       1824.    
        1839.       1843.       1827.       1810.       1791.       1802.       1794.       1781.       1796.       1810.    
        1777.       1756.       1740.       1735.       1747.       1772.       1809.       1832.       1853.       1872.    
        1895.       1926.       1930.       1947.       1998.       2022.       1975.       1948.       1976.       1967.    
        1904.       1889.       1875.       1862.       1850.       1837.       1826.       1811.       1798.       1785.    
        1773.       1760.       1748.       1736.       1724.       1713.       1702.       1690.       1678.       1667.    
        1656.       1645.       1634.       1623.       1613.       1602.       1591.       1580.       1569.       1556.    
        1546.       1536.       1525.       1515.       1505.       1496.    
 118    1881.       1861.       1854.       1824.       1783.       1782.       1762.       1779.       1800.       1792.    
        1792.       1815.       1797.       1777.       1782.       1783.       1799.       1766.       1777.       1787.    
        1778.       1752.       1725.       1743.       1770.       1793.       1812.       1824.       1837.       1853.    
        1874.       1905.       1941.       1958.       2005.       2011.       1982.       1930.       1934.       1942.    
        1900.       1884.       1868.       1855.       1841.       1829.       1819.       1804.       1790.       1778.    
        1765.       1752.       1740.       1728.       1715.       1703.       1691.       1681.       1669.       1658.    
        1646.       1635.       1624.       1613.       1602.       1591.       1580.       1570.       1559.       1546.    
        1534.       1524.       1514.       1502.       1492.       1482.    
 119    1841.       1847.       1809.       1759.       1768.       1750.       1768.       1800.       1788.       1766.    
        1765.       1779.       1769.       1760.       1759.       1762.       1779.       1775.       1753.       1768.    
        1754.       1721.       1730.       1758.       1792.       1822.       1833.       1849.       1866.       1865.    
        1898.       1900.       1924.       1957.       2000.       1977.       1943.       1926.       1911.       1909.    
        1894.       1879.       1865.       1848.       1834.       1821.       1810.       1797.       1783.       1770.    
        1757.       1745.       1732.       1720.       1707.       1695.       1683.       1671.       1659.       1649.    
        1637.       1625.       1614.       1603.       1592.       1581.       1570.       1559.       1548.       1537.    
        1524.       1513.       1502.       1492.       1480.       1470.    
 120    1795.       1781.       1736.       1744.       1735.       1747.       1773.       1790.       1763.       1744.    
        1743.       1752.       1747.       1735.       1734.       1744.       1760.       1758.       1739.       1751.    
        1721.       1726.       1753.       1785.       1806.       1833.       1853.       1874.       1894.       1889.    
        1894.       1927.       1954.       1983.       2038.       2013.       1943.       1902.       1886.       1903.    
        1889.       1874.       1860.       1846.       1829.       1814.       1802.       1789.       1776.       1763.    
        1750.       1737.       1725.       1712.       1699.       1687.       1675.       1662.       1650.       1639.    
        1628.       1616.       1605.       1593.       1581.       1570.       1560.       1549.       1538.       1527.    
        1515.       1502.       1491.       1481.       1470.       1458.    
 121    1745.       1713.       1730.       1741.       1731.       1760.       1786.       1780.       1754.       1734.    
        1727.       1726.       1744.       1763.       1732.       1754.       1745.       1741.       1722.       1712.    
        1712.       1747.       1780.       1793.       1818.       1843.       1865.       1887.       1917.       1921.    
        1908.       1928.       1970.       2015.       1995.       1981.       1958.       1929.       1912.       1898.    
        1883.       1869.       1855.       1840.       1826.       1811.       1796.       1782.       1769.       1756.    
        1743.       1730.       1717.       1704.       1692.       1679.       1667.       1654.       1642.       1630.    
        1618.       1607.       1595.       1584.       1572.       1561.       1549.       1538.       1527.       1516.    
        1505.       1493.       1480.       1469.       1459.       1448.    
 122    1689.       1689.       1718.       1720.       1744.       1770.       1783.       1782.       1752.       1723.    
        1711.       1708.       1738.       1731.       1708.       1706.       1700.       1702.       1700.       1702.    
        1724.       1750.       1790.       1798.       1821.       1860.       1893.       1900.       1931.       1954.    
        1939.       1950.       1980.       2012.       1987.       1953.       1929.       1921.       1906.       1892.    
        1878.       1863.       1849.       1835.       1820.       1806.       1792.       1776.       1762.       1749.    
        1736.       1723.       1710.       1697.       1684.       1671.       1659.       1646.       1634.       1622.    
        1609.       1597.       1586.       1575.       1563.       1552.       1540.       1528.       1517.       1505.    
        1495.       1484.       1470.       1459.       1448.       1437.    
 123    1648.       1716.       1711.       1729.       1758.       1769.       1761.       1753.       1739.       1716.    
        1700.       1693.       1696.       1684.       1681.       1682.       1683.       1689.       1700.       1721.    
        1747.       1775.       1783.       1803.       1840.       1881.       1904.       1931.       1936.       1972.    
        1976.       1993.       1992.       1976.       1971.       1971.       1954.       1915.       1902.       1887.    
        1872.       1858.       1844.       1829.       1815.       1801.       1786.       1773.       1757.       1742.    
        1728.       1715.       1703.       1690.       1677.       1664.       1651.       1639.       1626.       1614.    
        1601.       1589.       1577.       1565.       1554.       1543.       1531.       1519.       1507.       1496.    
        1484.       1473.       1462.       1448.       1437.       1426.    
 124    1697.       1705.       1715.       1747.       1759.       1748.       1738.       1718.       1710.       1704.    
        1699.       1672.       1665.       1666.       1672.       1685.       1700.       1714.       1723.       1745.    
        1768.       1797.       1811.       1824.       1860.       1892.       1933.       1951.       1980.       1974.    
        2019.       1994.       1998.       1953.       1935.       1956.       1920.       1909.       1896.       1883.    
        1867.       1853.       1838.       1824.       1810.       1796.       1781.       1767.       1753.       1738.    
        1722.       1707.       1694.       1683.       1670.       1657.       1644.       1631.       1618.       1606.    
        1594.       1581.       1569.       1556.       1545.       1533.       1522.       1510.       1498.       1487.    
        1475.       1463.       1452.       1440.       1427.       1416.    
 125    1690.       1715.       1745.       1742.       1727.       1719.       1703.       1693.       1691.       1676.    
        1655.       1657.       1662.       1680.       1710.       1715.       1724.       1741.       1753.       1750.    
        1767.       1801.       1836.       1867.       1890.       1929.       1946.       1975.       1977.       1945.    
        1980.       1971.       1967.       1972.       1915.       1921.       1914.       1904.       1893.       1880.    
        1865.       1849.       1832.       1819.       1804.       1790.       1776.       1762.       1747.       1733.    
        1718.       1701.       1687.       1673.       1662.       1650.       1637.       1624.       1611.       1598.    
        1586.       1573.       1561.       1548.       1536.       1524.       1512.       1501.       1490.       1478.    
        1466.       1454.       1442.       1431.       1418.       1405.    
 126    1697.       1719.       1716.       1714.       1700.       1690.       1678.       1665.       1651.       1652.    
        1667.       1689.       1712.       1712.       1704.       1723.       1736.       1759.       1776.       1788.    
        1784.       1791.       1839.       1875.       1898.       1910.       1915.       1934.       1943.       1917.    
        1933.       1943.       1928.       1942.       1940.       1937.       1904.       1901.       1890.       1878.    
        1864.       1849.       1832.       1814.       1799.       1785.       1771.       1757.       1743.       1728.    
        1714.       1699.       1682.       1667.       1653.       1642.       1630.       1617.       1604.       1591.    
        1578.       1566.       1554.       1541.       1528.       1516.       1504.       1491.       1480.       1469.    
        1457.       1445.       1433.       1421.       1410.       1396.    
 127    1692.       1700.       1705.       1690.       1679.       1668.       1649.       1643.       1661.       1696.    
        1718.       1742.       1762.       1738.       1719.       1744.       1762.       1776.       1808.       1826.    
        1814.       1805.       1820.       1844.       1864.       1882.       1876.       1908.       1928.       1894.    
        1910.       1911.       1912.       1927.       1958.       1991.       1953.       1888.       1888.       1878.    
        1865.       1850.       1834.       1816.       1798.       1778.       1765.       1752.       1738.       1723.    
        1709.       1694.       1679.       1662.       1647.       1634.       1621.       1610.       1597.       1584.    
        1571.       1558.       1547.       1534.       1521.       1508.       1496.       1483.       1471.       1459.    
        1448.       1436.       1424.       1412.       1401.       1389.    
 128    1666.       1665.       1659.       1662.       1655.       1645.       1651.       1690.       1716.       1729.    
        1748.       1759.       1782.       1765.       1745.       1771.       1796.       1806.       1817.       1808.    
        1802.       1797.       1794.       1817.       1837.       1849.       1861.       1908.       1910.       1910.    
        1886.       1891.       1897.       1916.       1959.       2020.       2041.       1970.       1871.       1864.    
        1867.       1853.       1838.       1821.       1802.       1783.       1761.       1744.       1732.       1718.    
        1704.       1690.       1673.       1659.       1644.       1628.       1614.       1601.       1590.       1578.    
        1564.       1551.       1539.       1527.       1514.       1501.       1488.       1476.       1463.       1450.    
        1438.       1427.       1416.       1404.       1392.       1380.    
 129    1650.       1643.       1636.       1633.       1641.       1670.       1713.       1731.       1741.       1754.    
        1764.       1772.       1788.       1790.       1773.       1768.       1779.       1778.       1782.       1787.    
        1766.       1766.       1777.       1797.       1837.       1837.       1876.       1860.       1864.       1868.    
        1872.       1877.       1882.       1888.       1944.       2018.       2095.       2090.       1987.       1855.    
        1828.       1856.       1843.       1827.       1809.       1789.       1769.       1747.       1724.       1711.    
        1699.       1685.       1669.       1654.       1640.       1625.       1609.       1595.       1581.       1569.    
        1558.       1545.       1532.       1520.       1507.       1494.       1481.       1468.       1455.       1443.    
        1430.       1417.       1405.       1394.       1383.       1371.    
 130    1630.       1620.       1622.       1637.       1684.       1701.       1719.       1719.       1736.       1741.    
        1732.       1742.       1770.       1772.       1761.       1751.       1759.       1758.       1768.       1756.    
        1747.       1747.       1766.       1801.       1822.       1832.       1840.       1846.       1850.       1855.    
        1859.       1863.       1867.       1873.       1913.       1998.       2098.       2174.       2140.       2004.    
        1839.       1788.       1832.       1834.       1817.       1798.       1778.       1757.       1734.       1709.    
        1689.       1679.       1664.       1649.       1635.       1621.       1607.       1590.       1575.       1561.    
        1549.       1538.       1525.       1512.       1500.       1487.       1473.       1460.       1448.       1435.    
        1422.       1409.       1397.       1385.       1373.       1362.    
 131    1611.       1619.       1625.       1647.       1672.       1690.       1698.       1735.       1744.       1722.    
        1699.       1718.       1745.       1751.       1745.       1742.       1740.       1748.       1754.       1755.    
        1764.       1777.       1788.       1799.       1807.       1817.       1826.       1833.       1837.       1841.    
        1845.       1849.       1853.       1858.       1866.       1963.       2075.       2195.       2256.       2190.    
        2021.       1823.       1746.       1792.       1825.       1809.       1789.       1768.       1746.       1723.    
        1697.       1670.       1654.       1643.       1630.       1616.       1602.       1588.       1571.       1556.    
        1542.       1529.       1518.       1505.       1493.       1480.       1467.       1453.       1440.       1428.    
        1415.       1402.       1389.       1377.       1364.       1352.    
 # Output Control file created on 9/8/2020 by ModelMuse version 4.2.0.0.

 OUTPUT CONTROL IS SPECIFIED ONLY AT TIME STEPS FOR WHICH OUTPUT IS DESIRED
 HEADS WILL BE SAVED WITH FORMAT: (10(1X1PE13.5))     
 SAVED HEADS WILL BE LABELED
 DRAWDOWN WILL BE SAVED WITH FORMAT: (10(1X1PE13.5))     
 SAVED DRAWDOWN WILL BE LABELED
 COMPACT CELL-BY-CELL BUDGET FILES WILL BE WRITTEN
 AUXILIARY DATA WILL BE SAVED IN CELL-BY-CELL BUDGET FILES
 HEAD PRINT FORMAT CODE IS   0    DRAWDOWN PRINT FORMAT CODE IS   0
 HEADS WILL BE SAVED ON UNIT   37    DRAWDOWNS WILL BE SAVED ON UNIT   38

 ZONE OPTION, INPUT READ FROM UNIT 5015
 # Zone (ZONE) File created on 1/26/2022 by ModelMuse version 4.3.0.0.
     4 ZONE ARRAYS



             ZONE ARRAY: hk01_Z1   
 READING ON UNIT 5015 WITH FORMAT: (FREE)              

          1     2     3     4     5     6     7     8     9    10    11    12    13    14    15    16    17    18    19    20
         21    22    23    24    25    26    27    28    29    30    31    32    33    34    35    36    37    38    39    40
         41    42    43    44    45    46    47    48    49    50    51    52    53    54    55    56    57    58    59    60
         61    62    63    64    65    66    67    68    69    70    71    72    73    74    75    76
 ............................................................................................................................
   1      0     0     0     0     0     0     0     0     0     0     0     0     0     0     0     0     0     0     0     0
          0     0     0     0     0     0     0     0     0     0     0     0     0     0     0     0     0     0     0     0
          0     0     0     0     0     0     0     0     0     0     0     1     1     0     0     0     0     0     0     0
          0     0     0     0     0     0     0     0     0     0     0     1     1     1     0     1
   2      0     0     0     0     0     0     0     0     0     0     0     0     0     0     0     0     0     0     0     0
          0     0     0     0     0     0     0     0     0     0     0     0     0     0     0     0     0     0     0     0
          0     0     0     0     0     0     0     0     0     0     0     1     1     1     0     0     0     0     0     0
          0     0     0     0     0     0     0     1     1     1     1     1     1     1     1     1
   3      0     0     0     0     0     0     0     0     0     0     0     0     0     0     0     0     0     0     0     0
          0     0     0     0     0     0     0     0     0     0     0     0     0     0     0     0     0     0     0     0
          0     0     0     0     0     0     0     0     0     0     0     1     1     1     0     0     0     0     0     0
          0     0     1     1     1     1     1     1     1     1     1     1     1     1     1     1
   4      0     0     0     0     0     0     0     0     0     0     0     0     0     0     0     0     0     0     0     0
          0     0     0     0     0     0     0     0     0     0     0     0     0     0     0     0     0     0     0     0
          0     0     0     0     0     0     0     0     0     0     1     1     1     1     1     0     0     1     1     1
          1     1     1     1     1     1     1     1     1     1     1     1     1     1     1     1
   5      0     0     0     0     0     0     0     0     0     0     0     0     0     0     0     0     0     0     0     0
          0     0     0     0     0     0     0     0     0     0     0     0     0     0     0     0     0     0     0     0
          0     0     0     0     0     0     0     0     0     0     1     1     1     1     1     1     1     1     1     1
          1     1     1     1     1     1     1     1     1     1     1     1     1     1     1     0
   6      0     0     0     0     0     0     0     0     0     0     0     0     0     0     0     0     0     0     0     0
          0     0     0     0     0     0     0     0     0     0     0     0     0     0     0     0     0     0     0     0
          0     0     0     0     0     0     0     0     0     1     1     1     1     1     1     1     1     1     1     1
          1     1     1     1     1     1     1     1     1     1     1     1     1     1     1     0
   7      0     0     0     0     0     0     0     0     0     0     0     0     0     0     0     0     0     0     0     0
          0     0     0     0     0     0     0     0     0     0     0     0     0     0     0     0     0     0     0     0
          0     0     0     0     0     0     0     0     0     1     1     1     1     1     1     1     1     1     1     1
          1     1     1     1     1     1     1     1     1     1     1     1     1     1     1     0
   8      0     0     0     0     0     0     0     0     0     0     0     0     0     0     0     0     0     0     0     0
          0     0     0     0     0     0     0     0     0     0     0     0     0     0     0     0     0     0     0     0
          0     0     0     0     0     0     0     0     1     1     1     1     1     1     1     1     1     1     1     1
          1     1     1     1     1     1     1     1     1     1     1     1     1     1     1     1
   9      0     0     0     0     0     0     0     0     0     0     0     0     0     0     0     0     0     0     0     0
          0     0     0     0     0     0     0     0     0     0     0     0     0     0     0     0     0     0     0     0
          0     0     0     0     0     0     0     1     1     1     1     1     1     1     1     1     1     1     1     1
          1     1     1     1     1     1     1     1     1     1     1     1     1     1     1     1
  10      0     0     0     0     0     0     0     0     0     0     0     0     0     0     0     0     0     0     0     0
          0     0     0     0     0     0     0     0     0     0     0     0     0     0     0     0     0     0     0     0
          0     0     0     0     0     0     1     1     1     1     1     1     1     1     1     1     1     1     1     1
          1     1     1     1     1     1     1     1     1     1     1     1     1     1     1     1
  11      0     0     0     0     0     0     0     0     0     0     0     0     0     0     0     0     0     0     0     0
          0     0     0     0     0     0     0     0     0     0     0     0     0     0     0     0     0     0     0     0
          0     0     0     0     0     1     1     1     1     1     1     1     1     1     1     1     1     1     1     1
          1     1     1     1     1     1     1     1     1     1     1     1     1     1     1     0
  12      0     0     0     0     0     0     0     0     0     0     0     0     0     0     0     0     0     0     0     0
          0     0     0     0     0     0     0     0     0     0     0     0     0     0     0     0     0     0     0     0
          0     0     0     0     1     1     1     1     1     1     1     1     1     1     1     1     1     1     1     1
          1     1     1     1     1     1     1     1     1     1     1     1     1     1     1     0
  13      0     0     0     0     0     0     0     0     0     0     0     0     0     0     0     0     0     0     0     0
          0     0     0     0     0     0     0     0     0     0     0     0     0     0     0     0     0     0     0     0
          0     0     0     1     1     1     1     1     1     1     1     1     1     1     1     1     1     1     1     1
          1     1     1     1     1     1     1     1     1     1     1     1     1     1     1     0
  14      0     0     0     0     0     0     0     0     0     0     0     0     0     0     0     0     0     0     0     0
          0     0     0     0     0     0     0     0     0     0     0     0     0     0     0     0     0     0     0     0
          0     0     1     1     1     1     1     1     1     1     1     1     1     1     1     1     1     1     1     1
          1     1     1     1     1     1     1     1     1     1     1     1     1     1     1     1
  15      0     0     0     0     0     0     0     0     0     0     0     0     0     0     0     0     0     0     0     0
          0     0     0     0     0     0     0     0     0     0     0     0     0     0     0     0     0     0     0     0
          0     1     1     1     1     1     1     1     1     1     1     1     1     1     1     1     1     1     1     1
          1     1     1     1     1     1     1     1     1     1     1     1     1     1     1     1
  16      0     0     0     0     0     0     0     0     0     0     0     0     0     0     0     0     0     0     0     0
          0     0     0     0     0     0     0     0     0     0     0     0     0     0     0     0     0     0     0     0
          1     1     1     1     1     1     1     1     1     1     1     1     1     1     1     1     1     1     1     1
          1     1     1     1     1     1     1     1     1     1     1     1     1     1     1     0
  17      0     0     0     0     0     0     0     0     0     0     0     0     0     0     0     0     0     0     0     0
          0     0     0     0     0     0     0     0     0     0     0     0     0     0     0     0     0     0     0     1
          1     1     1     1     1     1     1     1     1     1     1     1     1     1     1     1     1     1     1     1
          1     1     1     1     1     1     1     1     1     1     1     1     1     1     1     1
  18      0     0     0     0     0     0     0     0     0     0     0     0     0     0     0     0     0     0     0     0
          0     0     0     0     0     0     0     0     0     0     0     0     0     0     0     0     0     0     1     1
          1     1     1     1     1     1     1     1     1     1     1     1     1     1     1     1     1     1     1     1
          1     1     1     1     1     1     1     1     1     1     1     1     1     1     1     1
  19      0     0     0     0     0     0     0     0     0     0     0     0     0     0     0     0     0     0     0     0
          0     0     0     0     0     0     0     0     0     0     0     0     0     0     0     0     0     1     1     1
          1     1     1     1     1     1     1     1     1     1     1     1     1     1     1     1     1     1     1     1
          1     1     1     1     1     1     1     1     1     1     1     1     1     1     1     1
  20      0     0     0     0     0     0     0     0     0     0     0     0     0     0     0     0     0     0     0     0
          0     0     0     0     0     0     0     0     0     0     0     0     0     0     0     0     1     1     1     1
          1     1     1     1     1     1     1     1     1     1     1     1     1     1     1     1     1     1     1     1
          1     1     1     1     1     1     1     1     1     1     1     1     1     1     1     1
  21      1     1     0     0     0     0     0     0     0     0     0     0     0     0     0     0     0     0     0     0
          0     0     0     0     0     0     0     0     0     0     0     0     0     0     0     1     1     1     1     1
          1     1     1     1     1     1     1     1     1     1     1     1     1     1     1     1     1     1     1     1
          1     1     1     1     1     1     1     1     1     1     1     1     1     1     1     1
  22      1     1     1     1     1     0     0     0     0     0     0     0     0     0     0     0     0     0     0     0
          0     0     0     0     0     0     0     0     0     0     0     0     1     1     1     1     1     1     1     1
          1     1     1     1     1     1     1     1     1     1     1     1     1     1     1     1     1     1     1     1
          1     1     1     1     1     1     1     1     1     1     1     1     1     1     1     1
  23      1     1     1     1     1     1     1     0     0     0     0     0     0     0     0     0     0     0     0     0
          0     0     0     0     0     0     0     0     0     0     0     0     1     1     1     1     1     1     1     1
          1     1     1     1     1     1     1     1     1     1     1     1     1     1     1     1     1     1     1     1
          1     1     1     1     1     1     1     1     1     1     1     1     1     1     1     1
  24      1     1     1     1     1     1     1     1     1     1     0     0     0     0     0     0     0     0     0     0
          0     0     0     0     0     0     0     0     0     0     0     0     1     1     1     1     1     1     1     1
          1     1     1     1     1     1     1     1     1     1     1     1     1     1     1     1     1     1     1     1
          1     1     1     1     1     1     1     1     1     1     1     1     1     1     1     1
  25      1     1     1     1     1     1     1     1     1     1     1     1     1     0     0     0     0     0     0     0
          0     0     0     0     0     0     0     0     0     1     1     1     1     1     1     1     1     1     1     1
          1     1     1     1     1     1     1     1     1     1     1     1     1     1     1     1     1     1     1     1
          1     1     1     1     1     1     1     1     1     1     1     1     1     1     1     1
  26      1     1     1     1     1     1     1     1     1     1     1     1     1     1     1     1     1     0     0     0
          0     0     0     0     0     0     1     1     1     1     1     1     1     1     1     1     1     1     1     1
          1     1     1     1     1     1     1     1     1     1     1     1     1     1     1     1     1     1     1     1
          1     1     1     1     1     1     1     1     1     1     1     1     1     1     1     1
  27      1     1     1     1     1     1     1     1     1     1     1     1     1     1     1     1     1     1     1     1
          1     1     1     1     1     1     1     1     1     1     1     1     1     1     1     1     1     1     1     1
          1     1     1     1     1     1     1     1     1     1     1     1     1     1     1     1     1     1     1     1
          1     1     1     1     1     1     1     1     1     1     1     1     1     1     1     0
  28      1     1     1     1     1     1     1     1     1     1     1     1     1     1     1     1     1     1     1     1
          1     1     1     1     1     1     1     1     1     1     1     1     1     1     1     1     1     1     1     1
          1     1     1     1     1     1     1     1     1     1     1     1     1     1     1     1     1     1     1     1
          1     1     1     1     1     1     1     1     1     1     1     1     1     1     1     0
  29      1     1     1     1     1     1     1     1     1     1     1     1     1     1     1     1     1     1     1     1
          1     1     1     1     1     1     1     1     1     1     1     1     1     1     1     1     1     1     1     1
          1     1     1     1     1     1     1     1     1     1     1     1     1     1     1     1     1     1     1     1
          1     1     1     1     1     1     1     1     1     1     1     1     1     1     1     0
  30      1     1     1     1     1     1     1     1     1     1     1     1     1     1     1     1     1     1     1     1
          1     1     1     1     1     1     1     1     1     1     1     1     1     1     1     1     1     1     1     1
          1     1     1     1     1     1     1     1     1     1     1     1     1     1     1     1     1     1     1     1
          1     1     1     1     1     1     1     1     1     1     1     1     1     1     1     0
  31      1     1     1     1     1     1     1     1     1     1     1     1     1     1     1     1     1     1     1     1
          1     1     1     1     1     1     1     1     1     1     1     1     1     1     1     1     1     1     1     1
          1     1     1     1     1     1     1     1     1     1     1     1     1     1     1     1     1     1     1     1
          1     1     1     1     1     1     1     1     1     1     1     1     1     1     0     0
  32      0     1     1     1     1     1     1     1     1     1     1     1     1     1     1     1     1     1     1     1
          1     1     1     1     1     1     1     1     1     1     1     1     1     1     1     1     1     1     1     1
          1     1     1     1     1     1     1     1     1     1     1     1     1     1     1     1     1     1     1     1
          1     1     1     1     1     1     1     1     1     1     1     1     1     1     0     0
  33      0     0     0     1     1     1     1     1     1     1     1     1     1     1     1     1     1     1     1     1
          1     1     1     1     1     1     1     1     1     1     1     1     1     1     1     1     1     1     1     1
          1     1     1     1     1     1     1     1     1     1     1     1     1     1     1     1     1     1     1     1
          1     1     1     1     1     1     1     1     1     1     1     1     1     0     0     0
  34      0     0     0     0     0     1     1     1     1     1     1     1     1     1     1     1     1     1     1     1
          1     1     1     1     1     1     1     1     1     1     1     1     1     1     1     1     1     1     1     1
          1     1     1     1     1     1     1     1     1     1     1     1     1     1     1     1     1     1     1     1
          1     1     1     1     1     1     1     1     1     1     1     1     1     0     0     0
  35      0     0     0     0     0     0     1     1     1     1     1     1     1     1     1     1     1     1     1     1
          1     1     1     1     1     1     1     1     1     1     1     1     1     1     1     1     1     1     1     1
          1     1     1     1     1     1     1     1     1     1     1     1     1     1     1     1     1     1     1     1
          1     1     1     1     1     1     1     1     1     1     1     1     0     0     0     0
  36      0     0     0     0     0     0     0     0     1     1     1     1     1     1     1     1     1     1     1     1
          1     1     1     1     1     1     1     1     1     1     1     1     1     1     1     1     1     1     1     1
          1     1     1     1     1     1     1     1     1     1     1     1     1     1     1     1     1     1     1     1
          1     1     1     1     1     1     1     1     1     1     1     1     0     0     0     0
  37      1     1     1     0     0     0     0     0     0     0     1     1     1     1     1     1     1     1     1     1
          1     1     1     1     1     1     1     1     1     1     1     1     1     1     1     1     1     1     1     1
          1     1     1     1     1     1     1     1     1     1     1     1     1     1     1     1     1     1     1     1
          1     1     1     1     1     1     1     1     1     1     1     1     0     0     0     0
  38      1     1     1     1     1     1     1     0     0     0     0     1     1     1     1     1     1     1     1     1
          1     1     1     1     1     1     1     1     1     1     1     1     1     1     1     1     1     1     1     1
          1     1     1     1     1     1     1     1     1     1     1     1     1     1     1     1     1     1     1     1
          1     1     1     1     1     1     1     1     1     0     1     1     0     0     0     0
  39      1     1     1     1     1     1     1     1     1     1     1     0     0     1     1     1     1     1     1     1
          1     1     1     1     1     1     1     1     1     1     1     1     1     1     1     1     1     1     1     1
          1     1     1     1     1     1     1     1     1     1     1     1     1     1     1     1     1     1     1     1
          1     1     1     1     1     1     1     1     1     1     1     0     0     0     0     0
  40      1     1     1     1     1     1     1     1     1     1     1     1     1     1     1     1     1     1     1     1
          1     1     1     1     1     1     1     1     1     1     1     1     1     1     1     1     1     1     1     1
          1     1     1     1     1     1     1     1     1     1     1     1     1     1     1     1     1     1     1     1
          1     1     1     1     1     1     1     1     1     1     1     0     0     0     0     0
  41      1     1     1     1     1     1     1     1     1     1     1     1     1     1     1     1     1     1     1     1
          1     1     1     1     1     1     1     1     1     1     1     1     1     1     1     1     1     1     1     1
          1     1     1     1     1     1     1     1     1     1     1     1     1     1     1     1     1     1     1     1
          1     1     1     1     1     1     1     1     1     1     1     1     0     0     0     0
  42      1     1     1     1     1     1     1     1     1     1     1     1     1     1     1     1     1     1     1     1
          1     1     1     1     1     1     1     1     1     1     1     1     1     1     1     1     1     1     1     1
          1     1     1     1     1     1     1     1     1     1     1     1     1     1     1     1     1     1     1     1
          1     1     1     1     1     1     1     1     1     1     1     1     0     0     0     0
  43      1     1     1     1     1     1     1     1     1     1     1     1     1     1     1     1     1     1     1     1
          1     1     1     1     1     1     1     1     1     1     1     1     1     1     1     1     1     1     1     1
          1     1     1     1     1     1     1     1     1     1     1     1     1     1     1     1     1     1     1     1
          1     1     1     1     1     1     1     1     1     1     1     1     1     0     0     0
  44      1     1     1     1     1     1     1     1     1     1     1     1     1     1     1     1     1     1     1     1
          1     1     1     1     1     1     1     1     1     1     1     1     1     1     1     1     1     1     1     1
          1     1     1     1     1     1     1     1     1     1     1     1     1     1     1     1     1     1     1     1
          1     1     1     1     1     1     1     1     1     1     1     1     1     1     0     0
  45      1     1     1     1     1     1     1     1     1     1     1     1     1     1     1     1     1     1     1     1
          1     1     1     1     1     1     1     1     1     1     1     1     1     1     1     1     1     1     1     1
          1     1     1     1     1     1     1     1     1     1     1     1     1     1     1     1     1     1     1     1
          1     1     1     1     1     1     1     1     1     1     1     1     1     1     1     0
  46      1     1     1     1     1     1     1     1     1     1     1     1     1     1     1     1     1     1     1     1
          1     1     1     1     1     1     1     1     1     1     1     1     1     1     1     1     1     1     1     1
          1     1     1     1     1     1     1     1     1     1     1     1     1     1     1     1     1     1     1     1
          1     1     1     1     1     1     1     1     1     1     1     1     1     1     1     1
  47      1     1     1     1     1     1     1     1     1     1     1     1     1     1     1     1     1     1     1     1
          1     1     1     1     1     1     1     1     1     1     1     1     1     1     1     1     1     1     1     1
          1     1     1     1     1     1     1     1     1     1     1     1     1     1     1     1     1     1     1     1
          1     1     1     1     1     1     1     1     1     1     1     1     1     1     1     1
  48      1     1     1     1     1     1     1     1     1     1     1     1     1     1     1     1     1     1     1     1
          1     1     1     1     1     1     1     1     1     1     1     1     1     1     1     1     1     1     1     1
          1     1     1     1     1     1     1     1     1     1     1     1     1     1     1     1     1     1     1     1
          1     1     1     1     1     1     1     1     1     1     1     1     1     1     1     1
  49      1     1     1     1     1     1     1     1     1     1     1     1     1     1     1     1     1     1     1     1
          1     1     1     1     1     1     1     1     1     1     1     1     1     1     1     1     1     1     1     1
          1     1     1     1     1     1     1     1     1     1     1     1     1     1     1     1     1     1     1     1
          1     1     1     1     1     1     1     1     1     1     1     1     1     1     1     1
  50      1     1     1     1     1     1     1     1     1     1     1     1     1     1     1     1     1     1     1     1
          1     1     1     1     1     1     1     1     1     1     1     1     1     1     1     1     1     1     1     1
          1     1     1     1     1     1     1     1     1     1     1     1     1     1     1     1     1     1     1     1
          1     1     1     1     1     1     1     1     1     1     1     1     1     1     1     1
  51      1     1     1     1     1     1     1     1     1     1     1     1     1     1     1     1     1     1     1     1
          1     1     1     1     1     1     1     1     1     1     1     1     1     1     1     1     1     1     1     1
          1     1     1     1     1     1     1     1     1     1     1     1     1     1     1     1     1     1     1     1
          1     1     1     1     1     1     1     1     1     1     1     1     1     1     1     1
  52      1     1     1     1     1     1     1     1     1     1     1     1     1     1     1     1     1     1     1     1
          1     1     1     1     1     1     1     1     1     1     1     1     1     1     1     1     1     1     1     1
          1     1     1     1     1     1     1     1     1     1     1     1     1     1     1     1     1     1     1     1
          1     1     1     1     1     1     1     1     1     1     1     1     1     1     1     1
  53      1     1     1     1     1     1     1     1     1     1     1     1     1     1     1     1     1     1     1     1
          1     1     1     1     1     1     1     1     1     1     1     1     1     1     1     1     1     1     1     1
          1     1     1     1     1     1     1     1     1     1     1     1     1     1     1     1     1     1     1     1
          1     1     1     1     1     1     1     1     1     1     1     1     1     1     1     1
  54      1     1     1     1     1     1     1     1     1     1     1     1     1     1     1     1     1     1     1     1
          1     1     1     1     1     1     1     1     1     1     1     1     1     1     1     1     1     1     1     1
          1     1     1     1     1     1     1     1     1     1     1     1     1     1     1     1     1     1     1     1
          1     1     1     1     1     1     1     1     1     1     1     1     1     1     1     1
  55      1     1     1     1     1     1     1     1     1     1     1     1     1     1     1     1     1     1     1     1
          1     1     1     1     1     1     1     1     1     1     1     1     1     1     1     1     1     1     1     1
          1     1     1     1     1     1     1     1     1     1     1     1     1     1     1     1     1     1     1     1
          1     1     1     1     1     1     1     1     1     1     1     1     1     1     1     1
  56      1     1     1     1     1     1     1     1     1     1     1     1     1     1     1     1     1     1     1     1
          1     1     1     1     1     1     1     1     1     1     1     1     1     1     1     1     1     1     1     1
          1     1     1     1     1     1     1     1     1     1     1     1     1     1     1     1     1     1     1     1
          1     1     1     1     1     1     1     1     1     1     1     1     1     1     1     1
  57      1     1     1     1     1     1     1     1     1     1     1     1     1     1     1     1     1     1     1     1
          1     1     1     1     1     1     1     1     1     1     1     1     1     1     1     1     1     1     1     1
          1     1     1     1     1     1     1     1     1     1     1     1     1     1     1     1     1     1     1     1
          1     1     1     1     1     1     1     1     1     1     1     1     1     1     1     1
  58      1     1     1     1     1     1     1     1     1     1     1     1     1     1     1     1     1     1     1     1
          1     1     0     1     1     1     1     1     1     1     1     1     1     1     1     1     1     1     1     1
          1     1     1     1     1     1     1     1     1     1     1     1     1     1     1     1     1     1     1     1
          1     1     1     1     1     1     1     1     1     1     1     1     1     1     1     1
  59      1     1     1     1     1     1     1     1     1     1     1     1     1     1     1     1     1     1     1     1
          1     1     1     1     1     1     1     1     1     1     1     1     1     1     1     1     1     1     1     1
          1     1     1     1     1     1     1     1     1     1     1     1     1     1     1     1     1     1     1     1
          1     1     1     1     1     1     1     1     1     1     1     1     1     1     1     1
  60      1     1     1     1     1     1     1     1     1     1     1     1     1     1     1     1     1     1     1     1
          1     1     1     1     1     1     1     1     1     1     1     1     1     1     1     1     1     1     1     1
          1     1     1     1     1     1     1     1     1     1     1     1     1     1     1     1     1     1     1     1
          1     1     1     1     1     1     1     1     1     1     1     1     1     1     1     1
  61      1     1     1     1     1     1     1     1     1     1     1     1     1     1     1     1     1     1     1     1
          1     0     1     1     1     1     1     1     1     1     1     1     1     1     1     1     1     1     1     1
          1     1     1     1     1     1     1     1     1     1     1     1     1     1     1     1     1     1     1     1
          1     1     1     1     1     1     1     1     1     1     1     1     1     1     1     1
  62      1     1     1     1     1     1     1     1     1     1     1     1     1     1     1     1     1     1     1     1
          1     0     1     1     1     1     1     1     1     1     1     1     1     1     1     1     1     1     1     1
          1     1     1     1     1     1     1     1     1     1     1     1     1     1     1     1     1     1     1     1
          1     1     1     1     1     1     1     1     1     1     1     1     1     1     1     1
  63      1     1     1     1     1     1     1     1     1     1     1     1     1     1     1     1     1     1     1     1
          1     1     1     1     1     1     1     1     1     1     1     1     1     1     1     1     1     1     1     1
          1     1     1     1     1     1     1     1     1     1     1     1     1     1     1     1     1     1     1     1
          1     1     1     1     1     1     1     1     1     1     1     1     1     1     1     1
  64      1     1     1     1     1     1     1     1     1     1     1     1     1     1     1     1     1     1     1     1
          0     1     1     1     1     1     1     1     1     1     1     1     1     1     1     1     1     1     1     1
          1     1     1     1     1     1     1     1     1     1     1     1     1     1     1     1     1     1     1     1
          1     1     1     1     1     1     1     1     1     1     1     1     1     1     1     1
  65      1     1     1     1     1     1     1     1     1     1     1     1     1     1     1     1     1     1     1     1
          0     1     1     1     1     1     1     1     1     1     1     1     1     1     1     1     1     1     1     1
          1     1     1     1     1     1     1     1     1     1     1     1     1     1     1     1     1     1     1     1
          1     1     1     1     1     1     1     1     1     1     1     1     1     1     1     1
  66      1     1     1     1     1     1     1     1     1     1     1     1     1     1     1     1     1     1     1     1
          0     1     1     1     1     1     1     1     1     1     1     1     1     1     1     1     1     1     1     1
          1     1     1     1     1     1     1     1     1     1     1     1     1     1     1     1     1     1     1     1
          1     1     1     1     1     1     1     1     1     1     1     1     1     1     1     1
  67      1     1     1     1     1     1     1     1     1     1     1     1     1     1     1     1     1     1     1     1
          1     1     1     1     1     1     1     1     1     1     1     1     1     1     1     1     1     1     1     1
          1     1     1     1     1     1     1     1     1     1     1     1     1     1     1     1     1     1     1     1
          1     1     1     1     1     1     1     1     1     1     1     1     1     1     1     1
  68      1     1     1     1     1     1     1     1     1     1     1     1     1     1     1     1     1     1     1     0
          1     1     1     1     1     1     1     1     1     1     1     1     1     1     1     1     1     1     1     1
          1     1     1     1     1     1     1     1     1     1     1     1     1     1     1     1     1     1     1     1
          1     1     1     1     1     1     1     1     1     1     1     1     1     1     1     1
  69      1     1     1     1     1     1     1     1     1     1     1     1     1     1     1     1     1     1     1     0
          1     1     1     1     1     1     1     1     1     1     1     1     1     1     1     1     1     1     1     1
          1     1     1     1     1     1     1     1     1     1     1     1     1     1     1     1     1     1     1     1
          1     1     1     1     1     1     1     1     1     1     1     1     1     1     1     1
  70      1     1     1     1     1     1     1     1     1     1     1     1     1     1     1     1     1     1     1     0
          1     1     1     1     1     1     1     1     1     1     1     1     1     1     1     1     1     1     1     1
          1     1     1     1     1     1     1     1     1     1     1     1     1     1     1     1     1     1     1     1
          1     1     1     1     1     1     1     1     1     1     1     1     1     1     1     1
  71      1     1     1     1     1     1     1     1     1     1     1     1     1     1     1     1     1     1     0     1
          1     1     1     1     1     1     1     1     1     1     1     1     1     1     1     1     1     1     1     1
          1     1     1     1     1     1     1     1     1     1     1     1     1     1     1     1     1     1     1     1
          1     1     1     1     1     1     1     1     1     1     1     1     1     1     1     1
  72      0     0     0     0     0     0     0     0     0     0     0     0     0     0     0     0     0     0     0     0
          0     0     0     0     0     0     0     0     0     0     0     0     0     0     0     0     0     0     0     0
          0     0     0     0     0     0     0     0     0     0     0     0     0     0     0     0     0     0     0     0
          0     0     0     0     0     0     0     0     0     0     0     0     0     0     0     0
  73      0     0     0     0     0     0     0     0     0     0     0     0     0     0     0     0     0     0     0     0
          0     0     0     0     0     0     0     0     0     0     0     0     0     0     0     0     0     0     0     0
          0     0     0     0     0     0     0     0     0     0     0     0     0     0     0     0     0     0     0     0
          0     0     0     0     0     0     0     0     0     0     0     0     0     0     0     0
  74      0     0     0     0     0     0     0     0     0     0     0     0     0     0     0     0     0     0     0     0
          0     0     0     0     0     0     0     0     0     0     0     0     0     0     0     0     0     0     0     0
          0     0     0     0     0     0     0     0     0     0     0     0     0     0     0     0     0     0     0     0
          0     0     0     0     0     0     0     0     0     0     0     0     0     0     0     0
  75      0     0     0     0     0     0     0     0     0     0     0     0     0     0     0     0     0     0     0     0
          0     0     0     0     0     0     0     0     0     0     0     0     0     0     0     0     0     0     0     0
          0     0     0     0     0     0     0     0     0     0     0     0     0     0     0     0     0     0     0     0
          0     0     0     0     0     0     0     0     0     0     0     0     0     0     0     0
  76      0     0     0     0     0     0     0     0     0     0     0     0     0     0     0     0     0     0     0     0
          0     0     0     0     0     0     0     0     0     0     0     0     0     0     0     0     0     0     0     0
          0     0     0     0     0     0     0     0     0     0     0     0     0     0     0     0     0     0     0     0
          0     0     0     0     0     0     0     0     0     0     0     0     0     0     0     0
  77      0     0     0     0     0     0     0     0     0     0     0     0     0     0     0     0     0     0     0     0
          0     0     0     0     0     0     0     0     0     0     0     0     0     0     0     0     0     0     0     0
          0     0     0     0     0     0     0     0     0     0     0     0     0     0     0     0     0     0     0     0
          0     0     0     0     0     0     0     0     0     0     0     0     0     0     0     0
  78      0     0     0     0     0     0     0     0     0     0     0     0     0     0     0     0     0     0     0     0
          0     0     0     0     0     0     0     0     0     0     0     0     0     0     0     0     0     0     0     0
          0     0     0     0     0     0     0     0     0     0     0     0     0     0     0     0     0     0     0     0
          0     0     0     0     0     0     0     0     0     0     0     0     0     0     0     0
  79      0     0     0     0     0     0     0     0     0     0     0     0     0     0     0     0     0     0     0     0
          0     0     0     0     0     0     0     0     0     0     0     0     0     0     0     0     0     0     0     0
          0     0     0     0     0     0     0     0     0     0     0     0     0     0     0     0     0     0     0     0
          0     0     0     0     0     0     0     0     0     0     0     0     0     0     0     0
  80      0     0     0     0     0     0     0     0     0     0     0     0     0     0     0     0     0     0     0     0
          0     0     0     0     0     0     0     0     0     0     0     0     0     0     0     0     0     0     0     0
          0     0     0     0     0     0     0     0     0     0     0     0     0     0     0     0     0     0     0     0
          0     0     0     0     0     0     0     0     0     0     0     0     0     0     0     0
  81      0     0     0     0     0     0     0     0     0     0     0     0     0     0     0     0     0     0     0     0
          0     0     0     0     0     0     0     0     0     0     0     0     0     0     0     0     0     0     0     0
          0     0     0     0     0     0     0     0     0     0     0     0     0     0     0     0     0     0     0     0
          0     0     0     0     0     0     0     0     0     0     0     0     0     0     0     0
  82      0     0     0     0     0     0     0     0     0     0     0     0     0     0     0     0     0     0     0     0
          0     0     0     0     0     0     0     0     0     0     0     0     0     0     0     0     0     0     0     0
          0     0     0     0     0     0     0     0     0     0     0     0     0     0     0     0     0     0     0     0
          0     0     0     0     0     0     0     0     0     0     0     0     0     0     0     0
  83      0     0     0     0     0     0     0     0     0     0     0     0     0     0     0     0     0     0     0     0
          0     0     0     0     0     0     0     0     0     0     0     0     0     0     0     0     0     0     0     0
          0     0     0     0     0     0     0     0     0     0     0     0     0     0     0     0     0     0     0     0
          0     0     0     0     0     0     0     0     0     0     0     0     0     0     0     0
  84      0     0     0     0     0     0     0     0     0     0     0     0     0     0     0     0     0     0     0     0
          0     0     0     0     0     0     0     0     0     0     0     0     0     0     0     0     0     0     0     0
          0     0     0     0     0     0     0     0     0     0     0     0     0     0     0     0     0     0     0     0
          0     0     0     0     0     0     0     0     0     0     0     0     0     0     0     0
  85      0     0     0     0     0     0     0     0     0     0     0     0     0     0     0     0     0     0     0     0
          0     0     0     0     0     0     0     0     0     0     0     0     0     0     0     0     0     0     0     0
          0     0     0     0     0     0     0     0     0     0     0     0     0     0     0     0     0     0     0     0
          0     0     0     0     0     0     0     0     0     0     0     0     0     0     0     0
  86      0     0     0     0     0     0     0     0     0     0     0     0     0     0     0     0     0     0     0     0
          0     0     0     0     0     0     0     0     0     0     0     0     0     0     0     0     0     0     0     0
          0     0     0     0     0     0     0     0     0     0     0     0     0     0     0     0     0     0     0     0
          0     0     0     0     0     0     0     0     0     0     0     0     0     0     0     0
  87      0     0     0     0     0     0     0     0     0     0     0     0     0     0     0     0     0     0     0     0
          0     0     0     0     0     0     0     0     0     0     0     0     0     0     0     0     0     0     0     0
          0     0     0     0     0     0     0     0     0     0     0     0     0     0     0     0     0     0     0     0
          0     0     0     0     0     0     0     0     0     0     0     0     0     0     0     0
  88      0     0     0     0     0     0     0     0     0     0     0     0     0     0     0     0     0     0     0     0
          0     0     0     0     0     0     0     0     0     0     0     0     0     0     0     0     0     0     0     0
          0     0     0     0     0     0     0     0     0     0     0     0     0     0     0     0     0     0     0     0
          0     0     0     0     0     0     0     0     0     0     0     0     0     0     0     0
  89      0     0     0     0     0     0     0     0     0     0     0     0     0     0     0     0     0     0     0     0
          0     0     0     0     0     0     0     0     0     0     0     0     0     0     0     0     0     0     0     0
          0     0     0     0     0     0     0     0     0     0     0     0     0     0     0     0     0     0     0     0
          0     0     0     0     0     0     0     0     0     0     0     0     0     0     0     0
  90      0     0     0     0     0     0     0     0     0     0     0     0     0     0     0     0     0     0     0     0
          0     0     0     0     0     0     0     0     0     0     0     0     0     0     0     0     0     0     0     0
          0     0     0     0     0     0     0     0     0     0     0     0     0     0     0     0     0     0     0     0
          0     0     0     0     0     0     0     0     0     0     0     0     0     0     0     0
  91      0     0     0     0     0     0     0     0     0     0     0     0     0     0     0     0     0     0     0     0
          0     0     0     0     0     0     0     0     0     0     0     0     0     0     0     0     0     0     0     0
          0     0     0     0     0     0     0     0     0     0     0     0     0     0     0     0     0     0     0     0
          0     0     0     0     0     0     0     0     0     0     0     0     0     0     0     0
  92      0     0     0     0     0     0     0     0     0     0     0     0     0     0     0     0     0     0     0     0
          0     0     0     0     0     0     0     0     0     0     0     0     0     0     0     0     0     0     0     0
          0     0     0     0     0     0     0     0     0     0     0     0     0     0     0     0     0     0     0     0
          0     0     0     0     0     0     0     0     0     0     0     0     0     0     0     0
  93      0     0     0     0     0     0     0     0     0     0     0     0     0     0     0     0     0     0     0     0
          0     0     0     0     0     0     0     0     0     0     0     0     0     0     0     0     0     0     0     0
          0     0     0     0     0     0     0     0     0     0     0     0     0     0     0     0     0     0     0     0
          0     0     0     0     0     0     0     0     0     0     0     0     0     0     0     0
  94      0     0     0     0     0     0     0     0     0     0     0     0     0     0     0     0     0     0     0     0
          0     0     0     0     0     0     0     0     0     0     0     0     0     0     0     0     0     0     0     0
          0     0     0     0     0     0     0     0     0     0     0     0     0     0     0     0     0     0     0     0
          0     0     0     0     0     0     0     0     0     0     0     0     0     0     0     0
  95      0     0     0     0     0     0     0     0     0     0     0     0     0     0     0     0     0     0     0     0
          0     0     0     0     0     0     0     0     0     0     0     0     0     0     0     0     0     0     0     0
          0     0     0     0     0     0     0     0     0     0     0     0     0     0     0     0     0     0     0     0
          0     0     0     0     0     0     0     0     0     0     0     0     0     0     0     0
  96      0     0     0     0     0     0     0     0     0     0     0     0     0     0     0     0     0     0     0     0
          0     0     0     0     0     0     0     0     0     0     0     0     0     0     0     0     0     0     0     0
          0     0     0     0     0     0     0     0     0     0     0     0     0     0     0     0     0     0     0     0
          0     0     0     0     0     0     0     0     0     0     0     0     0     0     0     0
  97      0     0     0     0     0     0     0     0     0     0     0     0     0     0     0     0     0     0     0     0
          0     0     0     0     0     0     0     0     0     0     0     0     0     0     0     0     0     0     0     0
          0     0     0     0     0     0     0     0     0     0     0     0     0     0     0     0     0     0     0     0
          0     0     0     0     0     0     0     0     0     0     0     0     0     0     0     0
  98      0     0     0     0     0     0     0     0     0     0     0     0     0     0     0     0     0     0     0     0
          0     0     0     0     0     0     0     0     0     0     0     0     0     0     0     0     0     0     0     0
          0     0     0     0     0     0     0     0     0     0     0     0     0     0     0     0     0     0     0     0
          0     0     0     0     0     0     0     0     0     0     0     0     0     0     0     0
  99      0     0     0     0     0     0     0     0     0     0     0     0     0     0     0     0     0     0     0     0
          0     0     0     0     0     0     0     0     0     0     0     0     0     0     0     0     0     0     0     0
          0     0     0     0     0     0     0     0     0     0     0     0     0     0     0     0     0     0     0     0
          0     0     0     0     0     0     0     0     0     0     0     0     0     0     0     0
 100      0     0     0     0     0     0     0     0     0     0     0     0     0     0     0     0     0     0     0     0
          0     0     0     0     0     0     0     0     0     0     0     0     0     0     0     0     0     0     0     0
          0     0     0     0     0     0     0     0     0     0     0     0     0     0     0     0     0     0     0     0
          0     0     0     0     0     0     0     0     0     0     0     0     0     0     0     0
 101      0     0     0     0     0     0     0     0     0     0     0     0     0     0     0     0     0     0     0     0
          0     0     0     0     0     0     0     0     0     0     0     0     0     0     0     0     0     0     0     0
          0     0     0     0     0     0     0     0     0     0     0     0     0     0     0     0     0     0     0     0
          0     0     0     0     0     0     0     0     0     0     0     0     0     0     0     0
 102      0     0     0     0     0     0     0     0     0     0     0     0     0     0     0     0     0     0     0     0
          0     0     0     0     0     0     0     0     0     0     0     0     0     0     0     0     0     0     0     0
          0     0     0     0     0     0     0     0     0     0     0     0     0     0     0     0     0     0     0     0
          0     0     0     0     0     0     0     0     0     0     0     0     0     0     0     0
 103      0     0     0     0     0     0     0     0     0     0     0     0     0     0     0     0     0     0     0     0
          0     0     0     0     0     0     0     0     0     0     0     0     0     0     0     0     0     0     0     0
          0     0     0     0     0     0     0     0     0     0     0     0     0     0     0     0     0     0     0     0
          0     0     0     0     0     0     0     0     0     0     0     0     0     0     0     0
 104      0     0     0     0     0     0     0     0     0     0     0     0     0     0     0     0     0     0     0     0
          0     0     0     0     0     0     0     0     0     0     0     0     0     0     0     0     0     0     0     0
          0     0     0     0     0     0     0     0     0     0     0     0     0     0     0     0     0     0     0     0
          0     0     0     0     0     0     0     0     0     0     0     0     0     0     0     0
 105      0     0     0     0     0     0     0     0     0     0     0     0     0     0     0     0     0     0     0     0
          0     0     0     0     0     0     0     0     0     0     0     0     0     0     0     0     0     0     0     0
          0     0     0     0     0     0     0     0     0     0     0     0     0     0     0     0     0     0     0     0
          0     0     0     0     0     0     0     0     0     0     0     0     0     0     0     0
 106      0     0     0     0     0     0     0     0     0     0     0     0     0     0     0     0     0     0     0     0
          0     0     0     0     0     0     0     0     0     0     0     0     0     0     0     0     0     0     0     0
          0     0     0     0     0     0     0     0     0     0     0     0     0     0     0     0     0     0     0     0
          0     0     0     0     0     0     0     0     0     0     0     0     0     0     0     0
 107      0     0     0     0     0     0     0     0     0     0     0     0     0     0     0     0     0     0     0     0
          0     0     0     0     0     0     0     0     0     0     0     0     0     0     0     0     0     0     0     0
          0     0     0     0     0     0     0     0     0     0     0     0     0     0     0     0     0     0     0     0
          0     0     0     0     0     0     0     0     0     0     0     0     0     0     0     0
 108      0     0     0     0     0     0     0     0     0     0     0     0     0     0     0     0     0     0     0     0
          0     0     0     0     0     0     0     0     0     0     0     0     0     0     0     0     0     0     0     0
          0     0     0     0     0     0     0     0     0     0     0     0     0     0     0     0     0     0     0     0
          0     0     0     0     0     0     0     0     0     0     0     0     0     0     0     0
 109      0     0     0     0     0     0     0     0     0     0     0     0     0     0     0     0     0     0     0     0
          0     0     0     0     0     0     0     0     0     0     0     0     0     0     0     0     0     0     0     0
          0     0     0     0     0     0     0     0     0     0     0     0     0     0     0     0     0     0     0     0
          0     0     0     0     0     0     0     0     0     0     0     0     0     0     0     0
 110      0     0     0     0     0     0     0     0     0     0     0     0     0     0     0     0     0     0     0     0
          0     0     0     0     0     0     0     0     0     0     0     0     0     0     0     0     0     0     0     0
          0     0     0     0     0     0     0     0     0     0     0     0     0     0     0     0     0     0     0     0
          0     0     0     0     0     0     0     0     0     0     0     0     0     0     0     0
 111      0     0     0     0     0     0     0     0     0     0     0     0     0     0     0     0     0     0     0     0
          0     0     0     0     0     0     0     0     0     0     0     0     0     0     0     0     0     0     0     0
          0     0     0     0     0     0     0     0     0     0     0     0     0     0     0     0     0     0     0     0
          0     0     0     0     0     0     0     0     0     0     0     0     0     0     0     0
 112      0     0     0     0     0     0     0     0     0     0     0     0     0     0     0     0     0     0     0     0
          0     0     0     0     0     0     0     0     0     0     0     0     0     0     0     0     0     0     0     0
          0     0     0     0     0     0     0     0     0     0     0     0     0     0     0     0     0     0     0     0
          0     0     0     0     0     0     0     0     0     0     0     0     0     0     0     0
 113      0     0     0     0     0     0     0     0     0     0     0     0     0     0     0     0     0     0     0     0
          0     0     0     0     0     0     0     0     0     0     0     0     0     0     0     0     0     0     0     0
          0     0     0     0     0     0     0     0     0     0     0     0     0     0     0     0     0     0     0     0
          0     0     0     0     0     0     0     0     0     0     0     0     0     0     0     0
 114      0     0     0     0     0     0     0     0     0     0     0     0     0     0     0     0     0     0     0     0
          0     0     0     0     0     0     0     0     0     0     0     0     0     0     0     0     0     0     0     0
          0     0     0     0     0     0     0     0     0     0     0     0     0     0     0     0     0     0     0     0
          0     0     0     0     0     0     0     0     0     0     0     0     0     0     0     0
 115      0     0     0     0     0     0     0     0     0     0     0     0     0     0     0     0     0     0     0     0
          0     0     0     0     0     0     0     0     0     0     0     0     0     0     0     0     0     0     0     0
          0     0     0     0     0     0     0     0     0     0     0     0     0     0     0     0     0     0     0     0
          0     0     0     0     0     0     0     0     0     0     0     0     0     0     0     0
 116      0     0     0     0     0     0     0     0     0     0     0     0     0     0     0     0     0     0     0     0
          0     0     0     0     0     0     0     0     0     0     0     0     0     0     0     0     0     0     0     0
          0     0     0     0     0     0     0     0     0     0     0     0     0     0     0     0     0     0     0     0
          0     0     0     0     0     0     0     0     0     0     0     0     0     0     0     0
 117      0     0     0     0     0     0     0     0     0     0     0     0     0     0     0     0     0     0     0     0
          0     0     0     0     0     0     0     0     0     0     0     0     0     0     0     0     0     0     0     0
          0     0     0     0     0     0     0     0     0     0     0     0     0     0     0     0     0     0     0     0
          0     0     0     0     0     0     0     0     0     0     0     0     0     0     0     0
 118      0     0     0     0     0     0     0     0     0     0     0     0     0     0     0     0     0     0     0     0
          0     0     0     0     0     0     0     0     0     0     0     0     0     0     0     0     0     0     0     0
          0     0     0     0     0     0     0     0     0     0     0     0     0     0     0     0     0     0     0     0
          0     0     0     0     0     0     0     0     0     0     0     0     0     0     0     0
 119      0     0     0     0     0     0     0     0     0     0     0     0     0     0     0     0     0     0     0     0
          0     0     0     0     0     0     0     0     0     0     0     0     0     0     0     0     0     0     0     0
          0     0     0     0     0     0     0     0     0     0     0     0     0     0     0     0     0     0     0     0
          0     0     0     0     0     0     0     0     0     0     0     0     0     0     0     0
 120      0     0     0     0     0     0     0     0     0     0     0     0     0     0     0     0     0     0     0     0
          0     0     0     0     0     0     0     0     0     0     0     0     0     0     0     0     0     0     0     0
          0     0     0     0     0     0     0     0     0     0     0     0     0     0     0     0     0     0     0     0
          0     0     0     0     0     0     0     0     0     0     0     0     0     0     0     0
 121      0     0     0     0     0     0     0     0     0     0     0     0     0     0     0     0     0     0     0     0
          0     0     0     0     0     0     0     0     0     0     0     0     0     0     0     0     0     0     0     0
          0     0     0     0     0     0     0     0     0     0     0     0     0     0     0     0     0     0     0     0
          0     0     0     0     0     0     0     0     0     0     0     0     0     0     0     0
 122      0     0     0     0     0     0     0     0     0     0     0     0     0     0     0     0     0     0     0     0
          0     0     0     0     0     0     0     0     0     0     0     0     0     0     0     0     0     0     0     0
          0     0     0     0     0     0     0     0     0     0     0     0     0     0     0     0     0     0     0     0
          0     0     0     0     0     0     0     0     0     0     0     0     0     0     0     0
 123      0     0     0     0     0     0     0     0     0     0     0     0     0     0     0     0     0     0     0     0
          0     0     0     0     0     0     0     0     0     0     0     0     0     0     0     0     0     0     0     0
          0     0     0     0     0     0     0     0     0     0     0     0     0     0     0     0     0     0     0     0
          0     0     0     0     0     0     0     0     0     0     0     0     0     0     0     0
 124      0     0     0     0     0     0     0     0     0     0     0     0     0     0     0     0     0     0     0     0
          0     0     0     0     0     0     0     0     0     0     0     0     0     0     0     0     0     0     0     0
          0     0     0     0     0     0     0     0     0     0     0     0     0     0     0     0     0     0     0     0
          0     0     0     0     0     0     0     0     0     0     0     0     0     0     0     0
 125      0     0     0     0     0     0     0     0     0     0     0     0     0     0     0     0     0     0     0     0
          0     0     0     0     0     0     0     0     0     0     0     0     0     0     0     0     0     0     0     0
          0     0     0     0     0     0     0     0     0     0     0     0     0     0     0     0     0     0     0     0
          0     0     0     0     0     0     0     0     0     0     0     0     0     0     0     0
 126      0     0     0     0     0     0     0     0     0     0     0     0     0     0     0     0     0     0     0     0
          0     0     0     0     0     0     0     0     0     0     0     0     0     0     0     0     0     0     0     0
          0     0     0     0     0     0     0     0     0     0     0     0     0     0     0     0     0     0     0     0
          0     0     0     0     0     0     0     0     0     0     0     0     0     0     0     0
 127      0     0     0     0     0     0     0     0     0     0     0     0     0     0     0     0     0     0     0     0
          0     0     0     0     0     0     0     0     0     0     0     0     0     0     0     0     0     0     0     0
          0     0     0     0     0     0     0     0     0     0     0     0     0     0     0     0     0     0     0     0
          0     0     0     0     0     0     0     0     0     0     0     0     0     0     0     0
 128      0     0     0     0     0     0     0     0     0     0     0     0     0     0     0     0     0     0     0     0
          0     0     0     0     0     0     0     0     0     0     0     0     0     0     0     0     0     0     0     0
          0     0     0     0     0     0     0     0     0     0     0     0     0     0     0     0     0     0     0     0
          0     0     0     0     0     0     0     0     0     0     0     0     0     0     0     0
 129      0     0     0     0     0     0     0     0     0     0     0     0     0     0     0     0     0     0     0     0
          0     0     0     0     0     0     0     0     0     0     0     0     0     0     0     0     0     0     0     0
          0     0     0     0     0     0     0     0     0     0     0     0     0     0     0     0     0     0     0     0
          0     0     0     0     0     0     0     0     0     0     0     0     0     0     0     0
 130      0     0     0     0     0     0     0     0     0     0     0     0     0     0     0     0     0     0     0     0
          0     0     0     0     0     0     0     0     0     0     0     0     0     0     0     0     0     0     0     0
          0     0     0     0     0     0     0     0     0     0     0     0     0     0     0     0     0     0     0     0
          0     0     0     0     0     0     0     0     0     0     0     0     0     0     0     0
 131      0     0     0     0     0     0     0     0     0     0     0     0     0     0     0     0     0     0     0     0
          0     0     0     0     0     0     0     0     0     0     0     0     0     0     0     0     0     0     0     0
          0     0     0     0     0     0     0     0     0     0     0     0     0     0     0     0     0     0     0     0
          0     0     0     0     0     0     0     0     0     0     0     0     0     0     0     0



             ZONE ARRAY: hk02_Z1   
 READING ON UNIT 5015 WITH FORMAT: (FREE)              

          1     2     3     4     5     6     7     8     9    10    11    12    13    14    15    16    17    18    19    20
         21    22    23    24    25    26    27    28    29    30    31    32    33    34    35    36    37    38    39    40
         41    42    43    44    45    46    47    48    49    50    51    52    53    54    55    56    57    58    59    60
         61    62    63    64    65    66    67    68    69    70    71    72    73    74    75    76
 ............................................................................................................................
   1      0     0     0     0     0     0     0     0     0     0     0     0     0     0     0     0     0     0     0     0
          0     0     0     0     0     0     0     0     0     0     0     0     0     0     0     0     0     0     0     0
          0     0     0     0     0     0     0     0     0     0     0     0     0     0     0     0     0     0     0     0
          0     0     0     0     0     0     0     0     0     0     0     0     0     0     0     0
   2      0     0     0     0     0     0     0     0     0     0     0     0     0     0     0     0     0     0     0     0
          0     0     0     0     0     0     0     0     0     0     0     0     0     0     0     0     0     0     0     0
          0     0     0     0     0     0     0     0     0     0     0     0     0     0     0     0     0     0     0     0
          0     0     0     0     0     0     0     0     0     0     0     0     0     0     0     0
   3      0     0     0     0     0     0     0     0     0     0     0     0     0     0     0     0     0     0     0     0
          0     0     0     0     0     0     0     0     0     0     0     0     0     0     0     0     0     0     0     0
          0     0     0     0     0     0     0     0     0     0     0     0     0     0     0     0     0     0     0     0
          0     0     0     0     0     0     0     0     0     0     0     0     0     0     0     0
   4      0     0     0     0     0     0     0     0     0     0     0     0     0     0     0     0     0     0     0     0
          0     0     0     0     0     0     0     0     0     0     0     0     0     0     0     0     0     0     0     0
          0     0     0     0     0     0     0     0     0     0     0     0     0     0     0     0     0     0     0     0
          0     0     0     0     0     0     0     0     0     0     0     0     0     0     0     0
   5      0     0     0     0     0     0     0     0     0     0     0     0     0     0     0     0     0     0     0     0
          0     0     0     0     0     0     0     0     0     0     0     0     0     0     0     0     0     0     0     0
          0     0     0     0     0     0     0     0     0     0     0     0     0     0     0     0     0     0     0     0
          0     0     0     0     0     0     0     0     0     0     0     0     0     0     0     0
   6      0     0     0     0     0     0     0     0     0     0     0     0     0     0     0     0     0     0     0     0
          0     0     0     0     0     0     0     0     0     0     0     0     0     0     0     0     0     0     0     0
          0     0     0     0     0     0     0     0     0     0     0     0     0     0     0     0     0     0     0     0
          0     0     0     0     0     0     0     0     0     0     0     0     0     0     0     0
   7      0     0     0     0     0     0     0     0     0     0     0     0     0     0     0     0     0     0     0     0
          0     0     0     0     0     0     0     0     0     0     0     0     0     0     0     0     0     0     0     0
          0     0     0     0     0     0     0     0     0     0     0     0     0     0     0     0     0     0     0     0
          0     0     0     0     0     0     0     0     0     0     0     0     0     0     0     0
   8      0     0     0     0     0     0     0     0     0     0     0     0     0     0     0     0     0     0     0     0
          0     0     0     0     0     0     0     0     0     0     0     0     0     0     0     0     0     0     0     0
          0     0     0     0     0     0     0     0     0     0     0     0     0     0     0     0     0     0     0     0
          0     0     0     0     0     0     0     0     0     0     0     0     0     0     0     0
   9      0     0     0     0     0     0     0     0     0     0     0     0     0     0     0     0     0     0     0     0
          0     0     0     0     0     0     0     0     0     0     0     0     0     0     0     0     0     0     0     0
          0     0     0     0     0     0     0     0     0     0     0     0     0     0     0     0     0     0     0     0
          0     0     0     0     0     0     0     0     0     0     0     0     0     0     0     0
  10      0     0     0     0     0     0     0     0     0     0     0     0     0     0     0     0     0     0     0     0
          0     0     0     0     0     0     0     0     0     0     0     0     0     0     0     0     0     0     0     0
          0     0     0     0     0     0     0     0     0     0     0     0     0     0     0     0     0     0     0     0
          0     0     0     0     0     0     0     0     0     0     0     0     0     0     0     0
  11      0     0     0     0     0     0     0     0     0     0     0     0     0     0     0     0     0     0     0     0
          0     0     0     0     0     0     0     0     0     0     0     0     0     0     0     0     0     0     0     0
          0     0     0     0     0     0     0     0     0     0     0     0     0     0     0     0     0     0     0     0
          0     0     0     0     0     0     0     0     0     0     0     0     0     0     0     0
  12      0     0     0     0     0     0     0     0     0     0     0     0     0     0     0     0     0     0     0     0
          0     0     0     0     0     0     0     0     0     0     0     0     0     0     0     0     0     0     0     0
          0     0     0     0     0     0     0     0     0     0     0     0     0     0     0     0     0     0     0     0
          0     0     0     0     0     0     0     0     0     0     0     0     0     0     0     0
  13      0     0     0     0     0     0     0     0     0     0     0     0     0     0     0     0     0     0     0     0
          0     0     0     0     0     0     0     0     0     0     0     0     0     0     0     0     0     0     0     0
          0     0     0     0     0     0     0     0     0     0     0     0     0     0     0     0     0     0     0     0
          0     0     0     0     0     0     0     0     0     0     0     0     0     0     0     0
  14      0     0     0     0     0     0     0     0     0     0     0     0     0     0     0     0     0     0     0     0
          0     0     0     0     0     0     0     0     0     0     0     0     0     0     0     0     0     0     0     0
          0     0     0     0     0     0     0     0     0     0     0     0     0     0     0     0     0     0     0     0
          0     0     0     0     0     0     0     0     0     0     0     0     0     0     0     0
  15      0     0     0     0     0     0     0     0     0     0     0     0     0     0     0     0     0     0     0     0
          0     0     0     0     0     0     0     0     0     0     0     0     0     0     0     0     0     0     0     0
          0     0     0     0     0     0     0     0     0     0     0     0     0     0     0     0     0     0     0     0
          0     0     0     0     0     0     0     0     0     0     0     0     0     0     0     0
  16      0     0     0     0     0     0     0     0     0     0     0     0     0     0     0     0     0     0     0     0
          0     0     0     0     0     0     0     0     0     0     0     0     0     0     0     0     0     0     0     0
          0     0     0     0     0     0     0     0     0     0     0     0     0     0     0     0     0     0     0     0
          0     0     0     0     0     0     0     0     0     0     0     0     0     0     0     0
  17      0     0     0     0     0     0     0     0     0     0     0     0     0     0     0     0     0     0     0     0
          0     0     0     0     0     0     0     0     0     0     0     0     0     0     0     0     0     0     0     0
          0     0     0     0     0     0     0     0     0     0     0     0     0     0     0     0     0     0     0     0
          0     0     0     0     0     0     0     0     0     0     0     0     0     0     0     0
  18      0     0     0     0     0     0     0     0     0     0     0     0     0     0     0     0     0     0     0     0
          0     0     0     0     0     0     0     0     0     0     0     0     0     0     0     0     0     0     0     0
          0     0     0     0     0     0     0     0     0     0     0     0     0     0     0     0     0     0     0     0
          0     0     0     0     0     0     0     0     0     0     0     0     0     0     0     0
  19      0     0     0     0     0     0     0     0     0     0     0     0     0     0     0     0     0     0     0     0
          0     0     0     0     0     0     0     0     0     0     0     0     0     0     0     0     0     0     0     0
          0     0     0     0     0     0     0     0     0     0     0     0     0     0     0     0     0     0     0     0
          0     0     0     0     0     0     0     0     0     0     0     0     0     0     0     0
  20      0     0     0     0     0     0     0     0     0     0     0     0     0     0     0     0     0     0     0     0
          0     0     0     0     0     0     0     0     0     0     0     0     0     0     0     0     0     0     0     0
          0     0     0     0     0     0     0     0     0     0     0     0     0     0     0     0     0     0     0     0
          0     0     0     0     0     0     0     0     0     0     0     0     0     0     0     0
  21      0     0     0     0     0     0     0     0     0     0     0     0     0     0     0     0     0     0     0     0
          0     0     0     0     0     0     0     0     0     0     0     0     0     0     0     0     0     0     0     0
          0     0     0     0     0     0     0     0     0     0     0     0     0     0     0     0     0     0     0     0
          0     0     0     0     0     0     0     0     0     0     0     0     0     0     0     0
  22      0     0     0     0     0     0     0     0     0     0     0     0     0     0     0     0     0     0     0     0
          0     0     0     0     0     0     0     0     0     0     0     0     0     0     0     0     0     0     0     0
          0     0     0     0     0     0     0     0     0     0     0     0     0     0     0     0     0     0     0     0
          0     0     0     0     0     0     0     0     0     0     0     0     0     0     0     0
  23      0     0     0     0     0     0     0     0     0     0     0     0     0     0     0     0     0     0     0     0
          0     0     0     0     0     0     0     0     0     0     0     0     0     0     0     0     0     0     0     0
          0     0     0     0     0     0     0     0     0     0     0     0     0     0     0     0     0     0     0     0
          0     0     0     0     0     0     0     0     0     0     0     0     0     0     0     0
  24      0     0     0     0     0     0     0     0     0     0     0     0     0     0     0     0     0     0     0     0
          0     0     0     0     0     0     0     0     0     0     0     0     0     0     0     0     0     0     0     0
          0     0     0     0     0     0     0     0     0     0     0     0     0     0     0     0     0     0     0     0
          0     0     0     0     0     0     0     0     0     0     0     0     0     0     0     0
  25      0     0     0     0     0     0     0     0     0     0     0     0     0     0     0     0     0     0     0     0
          0     0     0     0     0     0     0     0     0     0     0     0     0     0     0     0     0     0     0     0
          0     0     0     0     0     0     0     0     0     0     0     0     0     0     0     0     0     0     0     0
          0     0     0     0     0     0     0     0     0     0     0     0     0     0     0     0
  26      0     0     0     0     0     0     0     0     0     0     0     0     0     0     0     0     0     0     0     0
          0     0     0     0     0     0     0     0     0     0     0     0     0     0     0     0     0     0     0     0
          0     0     0     0     0     0     0     0     0     0     0     0     0     0     0     0     0     0     0     0
          0     0     0     0     0     0     0     0     0     0     0     0     0     0     0     0
  27      0     0     0     0     0     0     0     0     0     0     0     0     0     0     0     0     0     0     0     0
          0     0     0     0     0     0     0     0     0     0     0     0     0     0     0     0     0     0     0     0
          0     0     0     0     0     0     0     0     0     0     0     0     0     0     0     0     0     0     0     0
          0     0     0     0     0     0     0     0     0     0     0     0     0     0     0     0
  28      0     0     0     0     0     0     0     0     0     0     0     0     0     0     0     0     0     0     0     0
          0     0     0     0     0     0     0     0     0     0     0     0     0     0     0     0     0     0     0     0
          0     0     0     0     0     0     0     0     0     0     0     0     0     0     0     0     0     0     0     0
          0     0     0     0     0     0     0     0     0     0     0     0     0     0     0     0
  29      0     0     0     0     0     0     0     0     0     0     0     0     0     0     0     0     0     0     0     0
          0     0     0     0     0     0     0     0     0     0     0     0     0     0     0     0     0     0     0     0
          0     0     0     0     0     0     0     0     0     0     0     0     0     0     0     0     0     0     0     0
          0     0     0     0     0     0     0     0     0     0     0     0     0     0     0     0
  30      0     0     0     0     0     0     0     0     0     0     0     0     0     0     0     0     0     0     0     0
          0     0     0     0     0     0     0     0     0     0     0     0     0     0     0     0     0     0     0     0
          0     0     0     0     0     0     0     0     0     0     0     0     0     0     0     0     0     0     0     0
          0     0     0     0     0     0     0     0     0     0     0     0     0     0     0     0
  31      0     0     0     0     0     0     0     0     0     0     0     0     0     0     0     0     0     0     0     0
          0     0     0     0     0     0     0     0     0     0     0     0     0     0     0     0     0     0     0     0
          0     0     0     0     0     0     0     0     0     0     0     0     0     0     0     0     0     0     0     0
          0     0     0     0     0     0     0     0     0     0     0     0     0     0     0     0
  32      0     0     0     0     0     0     0     0     0     0     0     0     0     0     0     0     0     0     0     0
          0     0     0     0     0     0     0     0     0     0     0     0     0     0     0     0     0     0     0     0
          0     0     0     0     0     0     0     0     0     0     0     0     0     0     0     0     0     0     0     0
          0     0     0     0     0     0     0     0     0     0     0     0     0     0     0     0
  33      0     0     0     0     0     0     0     0     0     0     0     0     0     0     0     0     0     0     0     0
          0     0     0     0     0     0     0     0     0     0     0     0     0     0     0     0     0     0     0     0
          0     0     0     0     0     0     0     0     0     0     0     0     0     0     0     0     0     0     0     0
          0     0     0     0     0     0     0     0     0     0     0     0     0     0     0     0
  34      0     0     0     0     0     0     0     0     0     0     0     0     0     0     0     0     0     0     0     0
          0     0     0     0     0     0     0     0     0     0     0     0     0     0     0     0     0     0     0     0
          0     0     0     0     0     0     0     0     0     0     0     0     0     0     0     0     0     0     0     0
          0     0     0     0     0     0     0     0     0     0     0     0     0     0     0     0
  35      0     0     0     0     0     0     0     0     0     0     0     0     0     0     0     0     0     0     0     0
          0     0     0     0     0     0     0     0     0     0     0     0     0     0     0     0     0     0     0     0
          0     0     0     0     0     0     0     0     0     0     0     0     0     0     0     0     0     0     0     0
          0     0     0     0     0     0     0     0     0     0     0     0     0     0     0     0
  36      0     0     0     0     0     0     0     0     0     0     0     0     0     0     0     0     0     0     0     0
          0     0     0     0     0     0     0     0     0     0     0     0     0     0     0     0     0     0     0     0
          0     0     0     0     0     0     0     0     0     0     0     0     0     0     0     0     0     0     0     0
          0     0     0     0     0     0     0     0     0     0     0     0     0     0     0     0
  37      0     0     0     0     0     0     0     0     0     0     0     0     0     0     0     0     0     0     0     0
          0     0     0     0     0     0     0     0     0     0     0     0     0     0     0     0     0     0     0     0
          0     0     0     0     0     0     0     0     0     0     0     0     0     0     0     0     0     0     0     0
          0     0     0     0     0     0     0     0     0     0     0     0     0     0     0     0
  38      0     0     0     0     0     0     0     0     0     0     0     0     0     0     0     0     0     0     0     0
          0     0     0     0     0     0     0     0     0     0     0     0     0     0     0     0     0     0     0     0
          0     0     0     0     0     0     0     0     0     0     0     0     0     0     0     0     0     0     0     0
          0     0     0     0     0     0     0     0     0     0     0     0     0     0     0     0
  39      0     0     0     0     0     0     0     0     0     0     0     0     0     0     0     0     0     0     0     0
          0     0     0     0     0     0     0     0     0     0     0     0     0     0     0     0     0     0     0     0
          0     0     0     0     0     0     0     0     0     0     0     0     0     0     0     0     0     0     0     0
          0     0     0     0     0     0     0     0     0     0     0     0     0     0     0     0
  40      0     0     0     0     0     0     0     0     0     0     0     0     0     0     0     0     0     0     0     0
          0     0     0     0     0     0     0     0     0     0     0     0     0     0     0     0     0     0     0     0
          0     0     0     0     0     0     0     0     0     0     0     0     0     0     0     0     0     0     0     0
          0     0     0     0     0     0     0     0     0     0     0     0     0     0     0     0
  41      0     0     0     0     0     0     0     0     0     0     0     0     0     0     0     0     0     0     0     0
          0     0     0     0     0     0     0     0     0     0     0     0     0     0     0     0     0     0     0     0
          0     0     0     0     0     0     0     0     0     0     0     0     0     0     0     0     0     0     0     0
          0     0     0     0     0     0     0     0     0     0     0     0     0     0     0     0
  42      0     0     0     0     0     0     0     0     0     0     0     0     0     0     0     0     0     0     0     0
          0     0     0     0     0     0     0     0     0     0     0     0     0     0     0     0     0     0     0     0
          0     0     0     0     0     0     0     0     0     0     0     0     0     0     0     0     0     0     0     0
          0     0     0     0     0     0     0     0     0     0     0     0     0     0     0     0
  43      0     0     0     0     0     0     0     0     0     0     0     0     0     0     0     0     0     0     0     0
          0     0     0     0     0     0     0     0     0     0     0     0     0     0     0     0     0     0     0     0
          0     0     0     0     0     0     0     0     0     0     0     0     0     0     0     0     0     0     0     0
          0     0     0     0     0     0     0     0     0     0     0     0     0     0     0     0
  44      0     0     0     0     0     0     0     0     0     0     0     0     0     0     0     0     0     0     0     0
          0     0     0     0     0     0     0     0     0     0     0     0     0     0     0     0     0     0     0     0
          0     0     0     0     0     0     0     0     0     0     0     0     0     0     0     0     0     0     0     0
          0     0     0     0     0     0     0     0     0     0     0     0     0     0     0     0
  45      0     0     0     0     0     0     0     0     0     0     0     0     0     0     0     0     0     0     0     0
          0     0     0     0     0     0     0     0     0     0     0     0     0     0     0     0     0     0     0     0
          0     0     0     0     0     0     0     0     0     0     0     0     0     0     0     0     0     0     0     0
          0     0     0     0     0     0     0     0     0     0     0     0     0     0     0     0
  46      0     0     0     0     0     0     0     0     0     0     0     0     0     0     0     0     0     0     0     0
          0     0     0     0     0     0     0     0     0     0     0     0     0     0     0     0     0     0     0     0
          0     0     0     0     0     0     0     0     0     0     0     0     0     0     0     0     0     0     0     0
          0     0     0     0     0     0     0     0     0     0     0     0     0     0     0     0
  47      0     0     0     0     0     0     0     0     0     0     0     0     0     0     0     0     0     0     0     0
          0     0     0     0     0     0     0     0     0     0     0     0     0     0     0     0     0     0     0     0
          0     0     0     0     0     0     0     0     0     0     0     0     0     0     0     0     0     0     0     0
          0     0     0     0     0     0     0     0     0     0     0     0     0     0     0     0
  48      0     0     0     0     0     0     0     0     0     0     0     0     0     0     0     0     0     0     0     0
          0     0     0     0     0     0     0     0     0     0     0     0     0     0     0     0     0     0     0     0
          0     0     0     0     0     0     0     0     0     0     0     0     0     0     0     0     0     0     0     0
          0     0     0     0     0     0     0     0     0     0     0     0     0     0     0     0
  49      0     0     0     0     0     0     0     0     0     0     0     0     0     0     0     0     0     0     0     0
          0     0     0     0     0     0     0     0     0     0     0     0     0     0     0     0     0     0     0     0
          0     0     0     0     0     0     0     0     0     0     0     0     0     0     0     0     0     0     0     0
          0     0     0     0     0     0     0     0     0     0     0     0     0     0     0     0
  50      0     0     0     0     0     0     0     0     0     0     0     0     0     0     0     0     0     0     0     0
          0     0     0     0     0     0     0     0     0     0     0     0     0     0     0     0     0     0     0     0
          0     0     0     0     0     0     0     0     0     0     0     0     0     0     0     0     0     0     0     0
          0     0     0     0     0     0     0     0     0     0     0     0     0     0     0     0
  51      0     0     0     0     0     0     0     0     0     0     0     0     0     0     0     0     0     0     0     0
          0     0     0     0     0     0     0     0     0     0     0     0     0     0     0     0     0     0     0     0
          0     0     0     0     0     0     0     0     0     0     0     0     0     0     0     0     0     0     0     0
          0     0     0     0     0     0     0     0     0     0     0     0     0     0     0     0
  52      0     0     0     0     0     0     0     0     0     0     0     0     0     0     0     0     0     0     0     0
          0     0     0     0     0     0     0     0     0     0     0     0     0     0     0     0     0     0     0     0
          0     0     0     0     0     0     0     0     0     0     0     0     0     0     0     0     0     0     0     0
          0     0     0     0     0     0     0     0     0     0     0     0     0     0     0     0
  53      0     0     0     0     0     0     0     0     0     0     0     0     0     0     0     0     0     0     0     0
          0     0     0     0     0     0     0     0     0     0     0     0     0     0     0     0     0     0     0     0
          0     0     0     0     0     0     0     0     0     0     0     0     0     0     0     0     0     0     0     0
          0     0     0     0     0     0     0     0     0     0     0     0     0     0     0     0
  54      0     0     0     0     0     0     0     0     0     0     0     0     0     0     0     0     0     0     0     0
          0     0     0     0     0     0     0     0     0     0     0     0     0     0     0     0     0     0     0     0
          0     0     0     0     0     0     0     0     0     0     0     0     0     0     0     0     0     0     0     0
          0     0     0     0     0     0     0     0     0     0     0     0     0     0     0     0
  55      0     0     0     0     0     0     0     0     0     0     0     0     0     0     0     0     0     0     0     0
          0     0     0     0     0     0     0     0     0     0     0     0     0     0     0     0     0     0     0     0
          0     0     0     0     0     0     0     0     0     0     0     0     0     0     0     0     0     0     0     0
          0     0     0     0     0     0     0     0     0     0     0     0     0     0     0     0
  56      0     0     0     0     0     0     0     0     0     0     0     0     0     0     0     0     0     0     0     0
          0     0     0     0     0     0     0     0     0     0     0     0     0     0     0     0     0     0     0     0
          0     0     0     0     0     0     0     0     0     0     0     0     0     0     0     0     0     0     0     0
          0     0     0     0     0     0     0     0     0     0     0     0     0     0     0     0
  57      0     0     0     0     0     0     0     0     0     0     0     0     0     0     0     0     0     0     0     0
          0     0     0     0     0     0     0     0     0     0     0     0     0     0     0     0     0     0     0     0
          0     0     0     0     0     0     0     0     0     0     0     0     0     0     0     0     0     0     0     0
          0     0     0     0     0     0     0     0     0     0     0     0     0     0     0     0
  58      0     0     0     0     0     0     0     0     0     0     0     0     0     0     0     0     0     0     0     0
          0     0     0     0     0     0     0     0     0     0     0     0     0     0     0     0     0     0     0     0
          0     0     0     0     0     0     0     0     0     0     0     0     0     0     0     0     0     0     0     0
          0     0     0     0     0     0     0     0     0     0     0     0     0     0     0     0
  59      0     0     0     0     0     0     0     0     0     0     0     0     0     0     0     0     0     0     0     0
          0     0     0     0     0     0     0     0     0     0     0     0     0     0     0     0     0     0     0     0
          0     0     0     0     0     0     0     0     0     0     0     0     0     0     0     0     0     0     0     0
          0     0     0     0     0     0     0     0     0     0     0     0     0     0     0     0
  60      0     0     0     0     0     0     0     0     0     0     0     0     0     0     0     0     0     0     0     0
          0     0     0     0     0     0     0     0     0     0     0     0     0     0     0     0     0     0     0     0
          0     0     0     0     0     0     0     0     0     0     0     0     0     0     0     0     0     0     0     0
          0     0     0     0     0     0     0     0     0     0     0     0     0     0     0     0
  61      0     0     0     0     0     0     0     0     0     0     0     0     0     0     0     0     0     0     0     0
          0     0     0     0     0     0     0     0     0     0     0     0     0     0     0     0     0     0     0     0
          0     0     0     0     0     0     0     0     0     0     0     0     0     0     0     0     0     0     0     0
          0     0     0     0     0     0     0     0     0     0     0     0     0     0     0     0
  62      0     0     0     0     0     0     0     0     0     0     0     0     0     0     0     0     0     0     0     0
          0     0     0     0     0     0     0     0     0     0     0     0     0     0     0     0     0     0     0     0
          0     0     0     0     0     0     0     0     0     0     0     0     0     0     0     0     0     0     0     0
          0     0     0     0     0     0     0     0     0     0     0     0     0     0     0     0
  63      0     0     0     0     0     0     0     0     0     0     0     0     0     0     0     0     0     0     0     0
          0     0     0     0     0     0     0     0     0     0     0     0     0     0     0     0     0     0     0     0
          0     0     0     0     0     0     0     0     0     0     0     0     0     0     0     0     0     0     0     0
          0     0     0     0     0     0     0     0     0     0     0     0     0     0     0     0
  64      0     0     0     0     0     0     0     0     0     0     0     0     0     0     0     0     0     0     0     0
          0     0     0     0     0     0     0     0     0     0     0     0     0     0     0     0     0     0     0     0
          0     0     0     0     0     0     0     0     0     0     0     0     0     0     0     0     0     0     0     0
          0     0     0     0     0     0     0     0     0     0     0     0     0     0     0     0
  65      0     0     0     0     0     0     0     0     0     0     0     0     0     0     0     0     0     0     0     0
          0     0     0     0     0     0     0     0     0     0     0     0     0     0     0     0     0     0     0     0
          0     0     0     0     0     0     0     0     0     0     0     0     0     0     0     0     0     0     0     0
          0     0     0     0     0     0     0     0     0     0     0     0     0     0     0     0
  66      0     0     0     0     0     0     0     0     0     0     0     0     0     0     0     0     0     0     0     0
          0     0     0     0     0     0     0     0     0     0     0     0     0     0     0     0     0     0     0     0
          0     0     0     0     0     0     0     0     0     0     0     0     0     0     0     0     0     0     0     0
          0     0     0     0     0     0     0     0     0     0     0     0     0     0     0     0
  67      0     0     0     0     0     0     0     0     0     0     0     0     0     0     0     0     0     0     0     0
          0     0     0     0     0     0     0     0     0     0     0     0     0     0     0     0     0     0     0     0
          0     0     0     0     0     0     0     0     0     0     0     0     0     0     0     0     0     0     0     0
          0     0     0     0     0     0     0     0     0     0     0     0     0     0     0     0
  68      0     0     0     0     0     0     0     0     0     0     0     0     0     0     0     0     0     0     0     0
          0     0     0     0     0     0     0     0     0     0     0     0     0     0     0     0     0     0     0     0
          0     0     0     0     0     0     0     0     0     0     0     0     0     0     0     0     0     0     0     0
          0     0     0     0     0     0     0     0     0     0     0     0     0     0     0     0
  69      0     0     0     0     0     0     0     0     0     0     0     0     0     0     0     0     0     0     0     0
          0     0     0     0     0     0     0     0     0     0     0     0     0     0     0     0     0     0     0     0
          0     0     0     0     0     0     0     0     0     0     0     0     0     0     0     0     0     0     0     0
          0     0     0     0     0     0     0     0     0     0     0     0     0     0     0     0
  70      0     0     0     0     0     0     0     0     0     0     0     0     0     0     0     0     0     0     0     0
          0     0     0     0     0     0     0     0     0     0     0     0     0     0     0     0     0     0     0     0
          0     0     0     0     0     0     0     0     0     0     0     0     0     0     0     0     0     0     0     0
          0     0     0     0     0     0     0     0     0     0     0     0     0     0     0     0
  71      0     0     0     0     0     0     0     0     0     0     0     0     0     0     0     0     0     0     0     0
          0     0     0     0     0     0     0     0     0     0     0     0     0     0     0     0     0     0     0     0
          0     0     0     0     0     0     0     0     0     0     0     0     0     0     0     0     0     0     0     0
          0     0     0     0     0     0     0     0     0     0     0     0     0     0     0     0
  72      1     1     1     1     1     1     1     1     1     1     1     1     1     1     1     1     1     1     0     1
          1     1     1     1     1     1     1     1     1     1     1     1     1     1     1     1     1     1     1     1
          1     1     1     1     1     1     1     1     1     1     1     1     1     1     1     1     1     1     1     1
          1     1     1     1     1     1     1     1     1     1     1     1     1     1     1     1
  73      1     1     1     1     1     1     1     1     1     1     1     1     1     1     1     1     1     1     0     1
          1     1     1     1     1     1     1     1     1     1     1     1     1     1     1     1     1     1     1     1
          1     1     1     1     1     1     1     1     1     1     1     1     1     1     1     1     1     1     1     1
          1     1     1     1     1     1     1     1     1     1     1     1     1     1     1     1
  74      1     1     1     1     1     1     1     1     1     1     1     1     1     1     1     1     1     0     0     1
          1     1     1     1     1     1     1     1     1     1     1     1     1     1     1     1     1     1     1     1
          1     1     1     1     1     1     1     1     1     1     1     1     1     1     1     1     1     1     1     1
          1     1     1     1     1     1     1     1     1     1     1     1     1     1     1     1
  75      1     1     1     1     1     1     1     1     1     1     1     1     1     1     1     1     1     0     1     1
          1     1     1     1     1     1     1     1     1     1     1     1     1     1     1     1     1     1     1     1
          1     1     1     1     1     1     1     1     1     1     1     1     1     1     1     1     1     1     1     1
          1     1     1     1     1     1     1     1     1     1     1     1     1     1     1     1
  76      1     1     1     1     1     1     1     1     1     1     1     1     1     1     1     1     1     0     1     1
          1     1     1     1     1     1     1     1     1     1     1     1     1     1     1     1     1     1     1     1
          1     1     1     1     1     1     1     1     1     1     1     1     1     1     1     1     1     1     1     1
          1     1     1     1     1     1     1     1     1     1     1     1     1     1     1     1
  77      1     1     1     1     1     1     1     1     1     1     1     1     1     1     1     1     0     0     1     1
          1     1     1     1     1     1     1     1     1     1     1     1     1     1     1     1     1     1     1     1
          1     1     1     1     1     1     1     1     1     1     1     1     1     1     1     1     1     1     1     1
          1     1     1     1     1     1     1     1     1     1     1     1     1     1     1     1
  78      1     1     1     1     1     1     1     1     1     1     1     1     1     1     1     1     0     0     1     1
          1     1     1     1     1     1     1     1     1     1     1     1     1     1     1     1     1     1     1     1
          1     1     1     1     1     1     1     1     1     1     1     1     1     1     1     1     1     1     1     1
          1     1     1     1     1     1     1     1     1     1     1     1     1     1     1     1
  79      1     1     1     1     1     1     1     1     1     1     1     1     1     1     1     1     0     0     1     1
          1     1     1     1     1     1     1     1     1     1     1     1     1     1     1     1     1     1     1     1
          1     1     1     1     1     1     1     1     1     1     1     1     1     1     1     1     1     1     1     1
          1     1     1     1     1     1     1     1     1     1     1     1     1     1     1     1
  80      1     1     1     1     1     1     1     1     1     1     1     1     1     1     1     1     0     1     1     1
          1     1     1     1     1     1     1     1     1     1     1     1     1     1     1     1     1     1     1     1
          1     1     1     1     1     1     1     1     1     1     1     1     1     1     1     1     1     1     1     1
          1     1     1     1     1     1     1     1     1     1     1     1     1     1     1     1
  81      1     1     1     1     1     1     1     1     1     1     1     1     1     1     1     0     0     1     1     1
          1     1     1     1     1     1     1     1     1     1     1     1     1     1     1     1     1     1     1     1
          1     1     1     1     1     1     1     1     1     1     1     1     1     1     1     1     1     1     1     1
          1     1     1     1     1     1     1     1     1     1     1     1     1     1     1     1
  82      1     1     1     1     1     1     1     1     1     1     1     1     1     1     1     0     0     1     1     1
          1     1     1     1     1     1     1     1     1     1     1     1     1     1     1     1     1     1     1     1
          1     1     1     1     1     1     1     1     1     1     1     1     1     1     1     1     1     1     1     1
          1     1     1     1     1     1     1     1     1     1     1     1     1     1     1     1
  83      1     1     1     1     1     1     1     1     1     1     1     1     1     1     1     0     1     1     1     1
          1     1     1     1     1     1     1     1     1     1     1     1     1     1     1     1     1     1     1     1
          1     1     1     1     1     1     1     1     1     1     1     1     1     1     1     1     1     1     1     1
          1     1     1     1     1     1     1     1     1     1     1     1     1     1     1     1
  84      1     1     1     1     1     1     1     1     1     1     1     1     1     1     0     0     1     1     1     1
          1     1     1     1     1     1     1     1     1     1     1     1     1     1     1     1     1     1     1     1
          1     1     1     1     1     1     1     1     1     1     1     1     1     1     1     1     1     1     1     1
          1     1     1     1     1     1     1     1     1     1     1     1     1     1     1     1
  85      1     1     1     1     1     1     1     1     1     1     1     1     1     1     0     0     1     1     1     1
          1     1     1     1     1     1     1     1     1     1     1     1     1     1     1     1     1     1     1     1
          1     1     1     1     1     1     1     1     1     1     1     1     1     1     1     1     1     1     1     1
          1     1     1     1     1     1     1     1     1     1     1     1     1     1     1     1
  86      1     1     1     1     1     1     1     1     1     1     1     1     1     1     0     1     1     1     1     1
          1     1     1     1     1     1     1     1     1     1     1     1     1     1     1     1     1     1     1     1
          1     1     1     1     1     1     1     1     1     1     1     1     1     1     1     1     1     1     1     1
          1     1     1     1     1     1     1     1     1     1     1     1     1     1     1     1
  87      1     1     1     1     1     1     1     1     1     1     1     1     1     0     0     1     1     1     1     1
          1     1     1     1     1     1     1     1     1     1     1     1     1     1     1     1     1     1     1     1
          1     1     1     1     1     1     1     1     1     1     1     1     1     1     1     1     1     1     1     1
          1     1     1     1     1     1     1     1     1     1     1     1     1     1     1     1
  88      1     1     1     1     1     1     1     1     1     1     1     1     1     0     0     1     1     1     1     1
          1     1     1     1     1     1     1     1     1     1     1     1     1     1     1     1     1     1     1     1
          1     1     1     1     1     1     1     1     1     1     1     1     1     1     1     1     1     1     1     1
          1     1     1     1     1     1     1     1     1     1     1     1     1     1     1     1
  89      1     1     1     1     1     1     1     1     1     1     1     1     1     0     1     1     1     1     1     1
          1     1     1     1     1     1     1     1     1     1     1     1     1     1     1     1     1     1     1     1
          1     1     1     1     1     1     1     1     1     1     1     1     1     1     1     1     1     1     1     1
          1     1     1     1     1     1     1     1     1     1     1     1     1     1     1     1
  90      1     1     1     1     1     1     1     1     1     1     1     1     0     0     1     1     1     1     1     1
          1     1     1     1     1     1     1     1     1     1     1     1     1     1     1     1     1     1     1     1
          1     1     1     1     1     1     1     1     1     1     1     1     1     1     1     1     1     1     1     1
          1     1     1     1     1     1     1     1     1     1     1     1     1     1     1     1
  91      1     1     1     1     1     1     1     1     1     1     1     1     0     0     1     1     1     1     1     1
          1     1     1     1     1     1     1     1     1     1     1     1     1     1     1     1     1     1     1     1
          1     1     1     1     1     1     1     1     1     1     1     1     1     1     1     1     1     1     1     1
          1     1     1     1     1     1     1     1     1     1     1     1     1     1     1     1
  92      1     1     1     1     1     1     1     1     1     1     1     1     0     1     1     1     1     1     1     1
          1     1     1     1     1     1     1     1     1     1     1     1     1     1     1     1     1     1     1     1
          1     1     1     1     1     1     1     1     1     1     1     1     1     1     1     1     1     1     1     1
          1     1     1     1     1     1     1     1     1     1     1     1     1     1     1     1
  93      1     1     1     1     1     1     1     1     1     1     1     1     0     1     1     1     1     1     1     1
          1     1     1     1     1     1     1     1     1     1     1     1     1     1     1     1     1     1     1     1
          1     1     1     1     1     1     1     1     1     1     1     1     1     1     1     1     1     1     1     1
          1     1     1     1     1     1     1     1     1     1     1     1     1     1     1     1
  94      1     1     1     1     1     1     1     1     1     1     1     0     0     1     1     1     1     1     1     1
          1     1     1     1     1     1     1     1     1     1     1     1     1     1     1     1     1     1     1     1
          1     1     1     1     1     1     1     1     1     1     1     1     1     1     1     1     1     1     1     1
          1     1     1     1     1     1     1     1     1     1     1     1     1     1     1     1
  95      1     1     1     1     1     1     1     1     1     1     1     0     1     1     1     1     1     1     1     1
          1     1     1     1     1     1     1     1     1     1     1     1     1     1     1     1     1     1     1     1
          1     1     1     1     1     1     1     1     1     1     1     1     1     1     1     1     1     1     1     1
          1     1     1     1     1     1     1     1     1     1     1     1     1     1     1     1
  96      1     1     1     1     1     1     1     1     1     1     1     0     1     1     1     1     1     1     1     1
          1     1     1     1     1     1     1     1     1     1     1     1     1     1     1     1     1     1     1     1
          1     1     1     1     1     1     1     1     1     1     1     1     1     1     1     1     1     1     1     1
          1     1     1     1     1     1     1     1     1     1     1     1     1     1     1     1
  97      1     1     1     1     1     1     1     1     1     1     0     0     1     1     1     1     1     1     1     1
          1     1     1     1     1     1     1     1     1     1     1     1     1     1     1     1     1     1     1     1
          1     1     1     1     1     1     1     1     1     1     1     1     1     1     1     1     1     1     1     1
          1     1     1     1     1     1     1     1     1     1     1     1     1     1     1     1
  98      1     1     1     1     1     1     1     1     1     1     0     1     1     1     1     1     1     1     1     1
          1     1     1     1     1     1     1     1     1     1     1     1     1     1     1     1     1     1     1     1
          1     1     1     1     1     1     1     1     1     1     1     1     1     1     1     1     1     1     1     1
          1     1     1     1     1     1     1     1     1     1     1     1     1     1     1     1
  99      1     1     1     1     1     1     1     1     1     1     0     1     1     1     1     1     1     1     1     1
          1     1     1     1     1     1     1     1     1     1     1     1     1     1     1     1     1     1     1     1
          1     1     1     1     1     1     1     1     1     1     1     1     1     1     1     1     1     1     1     1
          1     1     1     1     1     1     1     1     1     1     1     1     1     1     1     1
 100      1     1     1     1     1     1     1     1     1     0     0     1     1     1     1     1     1     1     1     1
          1     1     1     1     1     1     1     1     1     1     1     1     1     1     1     1     1     1     1     1
          1     1     1     1     1     1     1     1     1     1     1     1     1     1     1     1     1     1     1     1
          1     1     1     1     1     1     1     1     1     1     1     1     1     1     1     1
 101      1     1     1     1     1     1     1     1     1     0     1     1     1     1     1     1     1     1     1     1
          1     1     1     1     1     1     1     1     1     1     1     1     1     1     1     1     1     1     1     1
          1     1     1     1     1     1     1     1     1     1     1     1     1     1     1     1     1     1     1     1
          1     1     1     1     1     1     1     1     1     1     1     1     1     1     1     1
 102      1     1     1     1     1     1     1     1     1     0     1     1     1     1     1     1     1     1     1     1
          1     1     1     1     1     1     1     1     1     1     1     1     1     1     1     1     1     1     1     1
          1     1     1     1     1     1     1     1     1     1     1     1     1     1     1     1     1     1     1     1
          1     1     1     1     1     1     1     1     1     1     1     1     1     1     1     1
 103      1     1     1     1     1     1     1     1     0     0     1     1     1     1     1     1     1     1     1     1
          1     1     1     1     1     1     1     1     1     1     1     1     1     1     1     1     1     1     1     1
          1     1     1     1     1     1     1     1     1     1     1     1     1     1     1     1     1     1     1     1
          1     1     1     1     1     1     1     1     1     1     1     1     1     1     1     1
 104      1     1     1     1     1     1     1     1     0     0     1     1     1     1     1     1     1     1     1     1
          1     1     1     1     1     1     1     1     1     1     1     1     1     1     1     1     1     1     1     1
          1     1     1     1     1     0     0     0     0     0     0     1     1     1     1     1     1     1     1     1
          1     1     1     1     1     1     1     1     1     1     1     1     1     1     1     1
 105      1     1     1     1     1     1     1     1     0     1     1     1     1     1     1     1     1     1     1     1
          1     1     1     1     1     1     1     1     1     1     1     1     1     1     1     1     1     1     1     1
          1     1     0     0     0     0     0     0     0     0     0     0     0     0     0     0     0     0     1     1
          1     1     1     1     1     1     1     1     1     1     1     1     1     1     1     1
 106      1     1     1     1     1     1     1     1     0     1     1     1     1     1     1     1     1     1     1     1
          1     1     1     1     1     1     1     1     1     1     1     1     1     1     1     1     1     1     1     1
          1     1     0     0     0     0     0     0     0     0     0     0     0     0     0     0     0     0     0     0
          0     0     0     1     1     1     1     1     1     1     1     1     1     1     1     1
 107      1     1     1     1     1     1     1     0     0     1     1     1     1     1     1     1     1     1     1     1
          1     1     1     1     1     1     1     1     1     1     1     1     1     1     1     1     1     1     1     1
          1     0     0     0     0     0     0     0     0     0     0     0     0     0     0     0     0     0     0     0
          0     0     0     0     0     0     0     0     1     1     1     1     1     1     1     1
 108      1     1     1     1     1     1     1     0     1     1     1     1     1     1     1     1     1     1     1     1
          1     1     1     1     1     1     1     1     1     1     1     1     1     1     1     1     1     1     1     1
          1     0     0     0     0     0     0     0     0     0     0     0     0     0     0     0     0     0     0     0
          0     0     0     0     0     0     0     0     0     0     0     0     1     1     1     1
 109      1     1     1     1     1     1     1     0     1     1     1     1     1     1     1     1     1     1     1     1
          1     1     1     1     1     1     1     1     1     1     1     1     1     1     1     1     1     1     1     1
          0     0     0     0     0     0     0     0     0     0     0     0     0     0     0     0     0     0     0     0
          0     0     0     0     0     0     0     0     0     0     0     0     0     0     0     1
 110      1     1     1     1     1     1     0     0     1     1     1     1     1     1     1     1     1     1     1     1
          1     1     1     1     1     1     1     1     1     1     1     1     1     1     1     1     1     1     1     1
          0     0     0     0     0     0     0     0     0     0     0     0     0     0     0     0     0     0     0     0
          0     0     0     0     0     0     0     0     0     0     0     0     0     0     0     0
 111      1     1     1     1     1     1     0     1     1     1     1     1     1     1     1     1     1     1     1     1
          1     1     1     1     1     1     1     1     1     1     1     1     1     1     1     1     1     1     1     0
          0     0     0     0     0     0     0     0     0     0     0     0     0     0     0     0     0     0     0     0
          0     0     0     0     0     0     0     0     0     0     0     0     0     0     0     0
 112      1     1     1     1     1     1     0     1     1     1     1     1     1     1     1     1     1     1     1     1
          1     1     1     1     1     1     1     1     1     1     1     1     1     1     1     1     1     1     1     0
          0     0     0     0     0     0     0     0     0     0     0     0     0     0     0     0     0     0     0     0
          0     0     0     0     0     0     0     0     0     0     0     0     0     0     0     0
 113      1     1     1     1     1     0     0     1     1     1     1     1     1     1     1     1     1     1     1     1
          1     1     1     1     1     1     1     1     1     1     1     1     1     1     1     1     1     1     0     0
          0     0     0     0     0     0     0     0     0     0     0     0     0     0     0     0     0     0     0     0
          0     0     0     0     0     0     0     0     0     0     0     0     0     0     0     0
 114      1     1     1     1     1     0     1     1     1     1     1     1     1     1     1     1     1     1     1     1
          1     1     1     1     1     1     1     1     1     1     1     1     1     1     1     1     1     1     0     0
          0     0     0     0     0     0     0     0     0     0     0     0     0     0     0     0     0     0     0     0
          0     0     0     0     0     0     0     0     0     0     0     0     0     0     0     0
 115      1     1     1     1     1     0     1     1     1     1     1     1     1     1     1     1     1     1     1     1
          1     1     1     1     1     1     1     1     1     1     1     1     1     1     1     1     1     1     1     0
          0     0     0     0     0     0     0     0     0     0     0     0     0     0     0     0     0     0     0     0
          0     0     0     0     0     0     0     0     0     0     0     0     0     0     0     0
 116      1     1     1     1     0     0     1     1     1     1     1     1     1     1     1     1     1     1     1     1
          1     1     1     1     1     1     1     1     1     1     1     1     1     1     1     1     1     1     1     0
          0     0     0     0     0     0     0     0     0     0     0     0     0     0     0     0     0     0     0     0
          0     0     0     0     0     0     0     0     0     0     0     0     0     0     0     0
 117      1     1     1     1     0     1     1     1     1     1     1     1     1     1     1     1     1     1     1     1
          1     1     1     1     1     1     1     1     1     1     1     1     1     1     1     1     1     1     1     1
          0     0     0     0     0     0     0     0     0     0     0     0     0     0     0     0     0     0     0     0
          0     0     0     0     0     0     0     0     0     0     0     0     0     0     0     0
 118      1     1     1     1     0     1     1     1     1     1     1     1     1     1     1     1     1     1     1     1
          1     1     1     1     1     1     1     1     1     1     1     1     1     1     1     1     1     1     1     1
          0     0     0     0     0     0     0     0     0     0     0     0     0     0     0     0     0     0     0     0
          0     0     0     0     0     0     0     0     0     0     0     0     0     0     0     0
 119      1     1     1     1     0     1     1     1     1     1     1     1     1     1     1     1     1     1     1     1
          1     1     1     1     1     1     1     1     1     1     1     1     1     1     1     1     1     1     1     1
          1     0     0     0     0     0     0     0     0     0     0     0     0     0     0     0     0     0     0     0
          0     0     0     0     0     0     0     0     0     0     0     0     0     0     0     0
 120      1     1     1     0     1     1     1     1     1     1     1     1     1     1     1     1     1     1     1     1
          1     1     1     1     1     1     1     1     1     1     1     1     1     1     1     1     1     1     1     1
          1     0     0     0     0     0     0     0     0     0     0     0     0     0     0     0     0     0     0     0
          0     0     0     0     0     0     0     0     0     0     0     0     0     0     0     0
 121      1     1     1     0     1     1     1     1     1     1     1     1     1     1     1     1     1     1     1     1
          1     1     1     1     1     1     1     1     1     1     1     1     1     1     1     1     1     1     1     1
          1     1     0     0     0     0     0     0     0     0     0     0     0     0     0     0     0     0     0     0
          0     0     0     0     0     0     0     0     0     0     0     0     0     0     0     0
 122      1     1     1     0     1     1     1     1     1     1     1     1     1     1     1     1     1     1     1     1
          1     1     1     1     1     1     1     1     1     1     1     1     1     1     1     1     1     1     1     1
          1     1     1     0     0     0     0     0     0     0     0     0     0     0     0     0     0     0     0     0
          0     0     0     0     0     0     0     0     0     0     0     0     0     0     0     0
 123      1     1     0     1     1     1     1     1     1     1     1     1     1     1     1     1     1     1     1     1
          1     1     1     1     1     1     1     1     1     1     1     1     1     1     1     1     1     1     1     1
          1     1     1     0     0     0     0     0     0     0     0     0     0     0     0     0     0     0     0     0
          0     0     0     0     0     0     0     0     0     0     0     0     0     0     0     0
 124      1     1     0     1     1     1     1     1     1     1     1     1     1     1     1     1     1     1     1     1
          1     1     1     1     1     1     1     1     1     1     1     1     1     1     1     1     1     1     1     1
          1     1     1     1     0     0     0     0     0     0     0     0     0     0     0     0     0     0     0     0
          0     0     0     0     0     0     0     0     0     0     0     0     0     0     0     0
 125      1     1     1     1     1     1     1     1     1     1     1     1     1     1     1     1     1     1     1     1
          1     1     1     1     1     1     1     1     1     1     1     1     1     1     1     1     1     1     1     1
          1     1     1     1     1     0     0     0     0     0     0     0     0     0     0     0     0     0     0     0
          0     0     0     0     0     0     0     0     0     0     0     0     0     0     0     0
 126      1     1     1     1     1     1     1     1     1     1     1     1     1     1     1     1     1     1     1     1
          1     1     1     1     1     1     1     1     1     1     1     1     1     1     1     1     1     1     1     1
          1     1     1     1     1     0     0     0     0     0     0     0     0     0     0     0     0     0     0     0
          0     0     0     0     0     0     0     0     0     0     0     0     0     0     0     0
 127      1     1     1     1     1     1     1     1     1     1     1     1     1     1     1     1     1     1     1     1
          1     1     1     1     1     1     1     1     1     1     1     1     1     1     1     1     1     1     1     1
          1     1     1     1     1     1     0     0     0     0     0     0     0     0     0     0     0     0     0     0
          0     0     0     0     0     0     0     0     0     0     0     0     0     0     0     0
 128      1     1     1     1     1     1     1     1     1     1     1     1     1     1     1     1     1     1     1     1
          1     1     1     1     1     1     1     1     1     1     1     1     1     1     1     1     1     1     1     1
          1     1     1     1     1     1     1     0     0     0     0     0     0     0     0     0     0     0     0     0
          0     0     0     0     0     0     0     0     0     0     0     0     0     0     0     0
 129      1     1     1     1     1     1     1     1     1     1     1     1     1     1     1     1     1     1     1     1
          1     1     1     1     1     1     1     1     1     1     1     1     1     1     1     1     1     1     1     1
          1     1     1     1     1     1     1     1     0     0     0     0     0     0     0     0     0     0     0     0
          0     0     0     0     0     0     0     0     0     0     0     0     0     0     0     0
 130      1     1     1     1     1     1     1     1     1     1     1     1     1     1     1     1     1     1     1     1
          1     1     1     1     1     1     1     1     1     1     1     1     1     1     1     1     1     1     1     1
          1     1     1     1     1     1     1     1     1     0     0     0     0     0     0     0     0     0     0     0
          0     0     0     0     0     0     0     0     0     0     0     0     0     0     0     0
 131      1     1     1     1     1     1     1     1     1     1     1     0     0     0     0     0     0     1     1     1
          1     1     1     1     1     1     1     1     1     1     1     1     1     1     1     1     1     1     1     1
          0     0     0     0     0     1     1     1     1     0     0     0     0     0     0     0     0     0     0     0
          0     0     0     0     0     0     0     0     0     0     0     0     0     0     0     0



             ZONE ARRAY: sy01_Z1   
 READING ON UNIT 5015 WITH FORMAT: (FREE)              

          1     2     3     4     5     6     7     8     9    10    11    12    13    14    15    16    17    18    19    20
         21    22    23    24    25    26    27    28    29    30    31    32    33    34    35    36    37    38    39    40
         41    42    43    44    45    46    47    48    49    50    51    52    53    54    55    56    57    58    59    60
         61    62    63    64    65    66    67    68    69    70    71    72    73    74    75    76
 ............................................................................................................................
   1      0     0     0     0     0     0     0     0     0     0     0     0     0     0     0     0     0     0     0     0
          0     0     0     0     0     0     0     0     0     0     0     0     0     0     0     0     0     0     0     0
          0     0     0     0     0     0     0     0     0     0     0     1     1     0     0     0     0     0     0     0
          0     0     0     0     0     0     0     0     0     0     0     1     1     1     0     1
   2      0     0     0     0     0     0     0     0     0     0     0     0     0     0     0     0     0     0     0     0
          0     0     0     0     0     0     0     0     0     0     0     0     0     0     0     0     0     0     0     0
          0     0     0     0     0     0     0     0     0     0     0     1     1     1     0     0     0     0     0     0
          0     0     0     0     0     0     0     1     1     1     1     1     1     1     1     1
   3      0     0     0     0     0     0     0     0     0     0     0     0     0     0     0     0     0     0     0     0
          0     0     0     0     0     0     0     0     0     0     0     0     0     0     0     0     0     0     0     0
          0     0     0     0     0     0     0     0     0     0     0     1     1     1     0     0     0     0     0     0
          0     0     1     1     1     1     1     1     1     1     1     1     1     1     1     1
   4      0     0     0     0     0     0     0     0     0     0     0     0     0     0     0     0     0     0     0     0
          0     0     0     0     0     0     0     0     0     0     0     0     0     0     0     0     0     0     0     0
          0     0     0     0     0     0     0     0     0     0     1     1     1     1     1     0     0     1     1     1
          1     1     1     1     1     1     1     1     1     1     1     1     1     1     1     1
   5      0     0     0     0     0     0     0     0     0     0     0     0     0     0     0     0     0     0     0     0
          0     0     0     0     0     0     0     0     0     0     0     0     0     0     0     0     0     0     0     0
          0     0     0     0     0     0     0     0     0     0     1     1     1     1     1     1     1     1     1     1
          1     1     1     1     1     1     1     1     1     1     1     1     1     1     1     0
   6      0     0     0     0     0     0     0     0     0     0     0     0     0     0     0     0     0     0     0     0
          0     0     0     0     0     0     0     0     0     0     0     0     0     0     0     0     0     0     0     0
          0     0     0     0     0     0     0     0     0     1     1     1     1     1     1     1     1     1     1     1
          1     1     1     1     1     1     1     1     1     1     1     1     1     1     1     0
   7      0     0     0     0     0     0     0     0     0     0     0     0     0     0     0     0     0     0     0     0
          0     0     0     0     0     0     0     0     0     0     0     0     0     0     0     0     0     0     0     0
          0     0     0     0     0     0     0     0     0     1     1     1     1     1     1     1     1     1     1     1
          1     1     1     1     1     1     1     1     1     1     1     1     1     1     1     0
   8      0     0     0     0     0     0     0     0     0     0     0     0     0     0     0     0     0     0     0     0
          0     0     0     0     0     0     0     0     0     0     0     0     0     0     0     0     0     0     0     0
          0     0     0     0     0     0     0     0     1     1     1     1     1     1     1     1     1     1     1     1
          1     1     1     1     1     1     1     1     1     1     1     1     1     1     1     1
   9      0     0     0     0     0     0     0     0     0     0     0     0     0     0     0     0     0     0     0     0
          0     0     0     0     0     0     0     0     0     0     0     0     0     0     0     0     0     0     0     0
          0     0     0     0     0     0     0     1     1     1     1     1     1     1     1     1     1     1     1     1
          1     1     1     1     1     1     1     1     1     1     1     1     1     1     1     1
  10      0     0     0     0     0     0     0     0     0     0     0     0     0     0     0     0     0     0     0     0
          0     0     0     0     0     0     0     0     0     0     0     0     0     0     0     0     0     0     0     0
          0     0     0     0     0     0     1     1     1     1     1     1     1     1     1     1     1     1     1     1
          1     1     1     1     1     1     1     1     1     1     1     1     1     1     1     1
  11      0     0     0     0     0     0     0     0     0     0     0     0     0     0     0     0     0     0     0     0
          0     0     0     0     0     0     0     0     0     0     0     0     0     0     0     0     0     0     0     0
          0     0     0     0     0     1     1     1     1     1     1     1     1     1     1     1     1     1     1     1
          1     1     1     1     1     1     1     1     1     1     1     1     1     1     1     0
  12      0     0     0     0     0     0     0     0     0     0     0     0     0     0     0     0     0     0     0     0
          0     0     0     0     0     0     0     0     0     0     0     0     0     0     0     0     0     0     0     0
          0     0     0     0     1     1     1     1     1     1     1     1     1     1     1     1     1     1     1     1
          1     1     1     1     1     1     1     1     1     1     1     1     1     1     1     0
  13      0     0     0     0     0     0     0     0     0     0     0     0     0     0     0     0     0     0     0     0
          0     0     0     0     0     0     0     0     0     0     0     0     0     0     0     0     0     0     0     0
          0     0     0     1     1     1     1     1     1     1     1     1     1     1     1     1     1     1     1     1
          1     1     1     1     1     1     1     1     1     1     1     1     1     1     1     0
  14      0     0     0     0     0     0     0     0     0     0     0     0     0     0     0     0     0     0     0     0
          0     0     0     0     0     0     0     0     0     0     0     0     0     0     0     0     0     0     0     0
          0     0     1     1     1     1     1     1     1     1     1     1     1     1     1     1     1     1     1     1
          1     1     1     1     1     1     1     1     1     1     1     1     1     1     1     1
  15      0     0     0     0     0     0     0     0     0     0     0     0     0     0     0     0     0     0     0     0
          0     0     0     0     0     0     0     0     0     0     0     0     0     0     0     0     0     0     0     0
          0     1     1     1     1     1     1     1     1     1     1     1     1     1     1     1     1     1     1     1
          1     1     1     1     1     1     1     1     1     1     1     1     1     1     1     1
  16      0     0     0     0     0     0     0     0     0     0     0     0     0     0     0     0     0     0     0     0
          0     0     0     0     0     0     0     0     0     0     0     0     0     0     0     0     0     0     0     0
          1     1     1     1     1     1     1     1     1     1     1     1     1     1     1     1     1     1     1     1
          1     1     1     1     1     1     1     1     1     1     1     1     1     1     1     0
  17      0     0     0     0     0     0     0     0     0     0     0     0     0     0     0     0     0     0     0     0
          0     0     0     0     0     0     0     0     0     0     0     0     0     0     0     0     0     0     0     1
          1     1     1     1     1     1     1     1     1     1     1     1     1     1     1     1     1     1     1     1
          1     1     1     1     1     1     1     1     1     1     1     1     1     1     1     1
  18      0     0     0     0     0     0     0     0     0     0     0     0     0     0     0     0     0     0     0     0
          0     0     0     0     0     0     0     0     0     0     0     0     0     0     0     0     0     0     1     1
          1     1     1     1     1     1     1     1     1     1     1     1     1     1     1     1     1     1     1     1
          1     1     1     1     1     1     1     1     1     1     1     1     1     1     1     1
  19      0     0     0     0     0     0     0     0     0     0     0     0     0     0     0     0     0     0     0     0
          0     0     0     0     0     0     0     0     0     0     0     0     0     0     0     0     0     1     1     1
          1     1     1     1     1     1     1     1     1     1     1     1     1     1     1     1     1     1     1     1
          1     1     1     1     1     1     1     1     1     1     1     1     1     1     1     1
  20      0     0     0     0     0     0     0     0     0     0     0     0     0     0     0     0     0     0     0     0
          0     0     0     0     0     0     0     0     0     0     0     0     0     0     0     0     1     1     1     1
          1     1     1     1     1     1     1     1     1     1     1     1     1     1     1     1     1     1     1     1
          1     1     1     1     1     1     1     1     1     1     1     1     1     1     1     1
  21      1     1     0     0     0     0     0     0     0     0     0     0     0     0     0     0     0     0     0     0
          0     0     0     0     0     0     0     0     0     0     0     0     0     0     0     1     1     1     1     1
          1     1     1     1     1     1     1     1     1     1     1     1     1     1     1     1     1     1     1     1
          1     1     1     1     1     1     1     1     1     1     1     1     1     1     1     1
  22      1     1     1     1     1     0     0     0     0     0     0     0     0     0     0     0     0     0     0     0
          0     0     0     0     0     0     0     0     0     0     0     0     1     1     1     1     1     1     1     1
          1     1     1     1     1     1     1     1     1     1     1     1     1     1     1     1     1     1     1     1
          1     1     1     1     1     1     1     1     1     1     1     1     1     1     1     1
  23      1     1     1     1     1     1     1     0     0     0     0     0     0     0     0     0     0     0     0     0
          0     0     0     0     0     0     0     0     0     0     0     0     1     1     1     1     1     1     1     1
          1     1     1     1     1     1     1     1     1     1     1     1     1     1     1     1     1     1     1     1
          1     1     1     1     1     1     1     1     1     1     1     1     1     1     1     1
  24      1     1     1     1     1     1     1     1     1     1     0     0     0     0     0     0     0     0     0     0
          0     0     0     0     0     0     0     0     0     0     0     0     1     1     1     1     1     1     1     1
          1     1     1     1     1     1     1     1     1     1     1     1     1     1     1     1     1     1     1     1
          1     1     1     1     1     1     1     1     1     1     1     1     1     1     1     1
  25      1     1     1     1     1     1     1     1     1     1     1     1     1     0     0     0     0     0     0     0
          0     0     0     0     0     0     0     0     0     1     1     1     1     1     1     1     1     1     1     1
          1     1     1     1     1     1     1     1     1     1     1     1     1     1     1     1     1     1     1     1
          1     1     1     1     1     1     1     1     1     1     1     1     1     1     1     1
  26      1     1     1     1     1     1     1     1     1     1     1     1     1     1     1     1     1     0     0     0
          0     0     0     0     0     0     1     1     1     1     1     1     1     1     1     1     1     1     1     1
          1     1     1     1     1     1     1     1     1     1     1     1     1     1     1     1     1     1     1     1
          1     1     1     1     1     1     1     1     1     1     1     1     1     1     1     1
  27      1     1     1     1     1     1     1     1     1     1     1     1     1     1     1     1     1     1     1     1
          1     1     1     1     1     1     1     1     1     1     1     1     1     1     1     1     1     1     1     1
          1     1     1     1     1     1     1     1     1     1     1     1     1     1     1     1     1     1     1     1
          1     1     1     1     1     1     1     1     1     1     1     1     1     1     1     0
  28      1     1     1     1     1     1     1     1     1     1     1     1     1     1     1     1     1     1     1     1
          1     1     1     1     1     1     1     1     1     1     1     1     1     1     1     1     1     1     1     1
          1     1     1     1     1     1     1     1     1     1     1     1     1     1     1     1     1     1     1     1
          1     1     1     1     1     1     1     1     1     1     1     1     1     1     1     0
  29      1     1     1     1     1     1     1     1     1     1     1     1     1     1     1     1     1     1     1     1
          1     1     1     1     1     1     1     1     1     1     1     1     1     1     1     1     1     1     1     1
          1     1     1     1     1     1     1     1     1     1     1     1     1     1     1     1     1     1     1     1
          1     1     1     1     1     1     1     1     1     1     1     1     1     1     1     0
  30      1     1     1     1     1     1     1     1     1     1     1     1     1     1     1     1     1     1     1     1
          1     1     1     1     1     1     1     1     1     1     1     1     1     1     1     1     1     1     1     1
          1     1     1     1     1     1     1     1     1     1     1     1     1     1     1     1     1     1     1     1
          1     1     1     1     1     1     1     1     1     1     1     1     1     1     1     0
  31      1     1     1     1     1     1     1     1     1     1     1     1     1     1     1     1     1     1     1     1
          1     1     1     1     1     1     1     1     1     1     1     1     1     1     1     1     1     1     1     1
          1     1     1     1     1     1     1     1     1     1     1     1     1     1     1     1     1     1     1     1
          1     1     1     1     1     1     1     1     1     1     1     1     1     1     0     0
  32      0     1     1     1     1     1     1     1     1     1     1     1     1     1     1     1     1     1     1     1
          1     1     1     1     1     1     1     1     1     1     1     1     1     1     1     1     1     1     1     1
          1     1     1     1     1     1     1     1     1     1     1     1     1     1     1     1     1     1     1     1
          1     1     1     1     1     1     1     1     1     1     1     1     1     1     0     0
  33      0     0     0     1     1     1     1     1     1     1     1     1     1     1     1     1     1     1     1     1
          1     1     1     1     1     1     1     1     1     1     1     1     1     1     1     1     1     1     1     1
          1     1     1     1     1     1     1     1     1     1     1     1     1     1     1     1     1     1     1     1
          1     1     1     1     1     1     1     1     1     1     1     1     1     0     0     0
  34      0     0     0     0     0     1     1     1     1     1     1     1     1     1     1     1     1     1     1     1
          1     1     1     1     1     1     1     1     1     1     1     1     1     1     1     1     1     1     1     1
          1     1     1     1     1     1     1     1     1     1     1     1     1     1     1     1     1     1     1     1
          1     1     1     1     1     1     1     1     1     1     1     1     1     0     0     0
  35      0     0     0     0     0     0     1     1     1     1     1     1     1     1     1     1     1     1     1     1
          1     1     1     1     1     1     1     1     1     1     1     1     1     1     1     1     1     1     1     1
          1     1     1     1     1     1     1     1     1     1     1     1     1     1     1     1     1     1     1     1
          1     1     1     1     1     1     1     1     1     1     1     1     0     0     0     0
  36      0     0     0     0     0     0     0     0     1     1     1     1     1     1     1     1     1     1     1     1
          1     1     1     1     1     1     1     1     1     1     1     1     1     1     1     1     1     1     1     1
          1     1     1     1     1     1     1     1     1     1     1     1     1     1     1     1     1     1     1     1
          1     1     1     1     1     1     1     1     1     1     1     1     0     0     0     0
  37      1     1     1     0     0     0     0     0     0     0     1     1     1     1     1     1     1     1     1     1
          1     1     1     1     1     1     1     1     1     1     1     1     1     1     1     1     1     1     1     1
          1     1     1     1     1     1     1     1     1     1     1     1     1     1     1     1     1     1     1     1
          1     1     1     1     1     1     1     1     1     1     1     1     0     0     0     0
  38      1     1     1     1     1     1     1     0     0     0     0     1     1     1     1     1     1     1     1     1
          1     1     1     1     1     1     1     1     1     1     1     1     1     1     1     1     1     1     1     1
          1     1     1     1     1     1     1     1     1     1     1     1     1     1     1     1     1     1     1     1
          1     1     1     1     1     1     1     1     1     0     1     1     0     0     0     0
  39      1     1     1     1     1     1     1     1     1     1     1     0     0     1     1     1     1     1     1     1
          1     1     1     1     1     1     1     1     1     1     1     1     1     1     1     1     1     1     1     1
          1     1     1     1     1     1     1     1     1     1     1     1     1     1     1     1     1     1     1     1
          1     1     1     1     1     1     1     1     1     1     1     0     0     0     0     0
  40      1     1     1     1     1     1     1     1     1     1     1     1     1     1     1     1     1     1     1     1
          1     1     1     1     1     1     1     1     1     1     1     1     1     1     1     1     1     1     1     1
          1     1     1     1     1     1     1     1     1     1     1     1     1     1     1     1     1     1     1     1
          1     1     1     1     1     1     1     1     1     1     1     0     0     0     0     0
  41      1     1     1     1     1     1     1     1     1     1     1     1     1     1     1     1     1     1     1     1
          1     1     1     1     1     1     1     1     1     1     1     1     1     1     1     1     1     1     1     1
          1     1     1     1     1     1     1     1     1     1     1     1     1     1     1     1     1     1     1     1
          1     1     1     1     1     1     1     1     1     1     1     1     0     0     0     0
  42      1     1     1     1     1     1     1     1     1     1     1     1     1     1     1     1     1     1     1     1
          1     1     1     1     1     1     1     1     1     1     1     1     1     1     1     1     1     1     1     1
          1     1     1     1     1     1     1     1     1     1     1     1     1     1     1     1     1     1     1     1
          1     1     1     1     1     1     1     1     1     1     1     1     0     0     0     0
  43      1     1     1     1     1     1     1     1     1     1     1     1     1     1     1     1     1     1     1     1
          1     1     1     1     1     1     1     1     1     1     1     1     1     1     1     1     1     1     1     1
          1     1     1     1     1     1     1     1     1     1     1     1     1     1     1     1     1     1     1     1
          1     1     1     1     1     1     1     1     1     1     1     1     1     0     0     0
  44      1     1     1     1     1     1     1     1     1     1     1     1     1     1     1     1     1     1     1     1
          1     1     1     1     1     1     1     1     1     1     1     1     1     1     1     1     1     1     1     1
          1     1     1     1     1     1     1     1     1     1     1     1     1     1     1     1     1     1     1     1
          1     1     1     1     1     1     1     1     1     1     1     1     1     1     0     0
  45      1     1     1     1     1     1     1     1     1     1     1     1     1     1     1     1     1     1     1     1
          1     1     1     1     1     1     1     1     1     1     1     1     1     1     1     1     1     1     1     1
          1     1     1     1     1     1     1     1     1     1     1     1     1     1     1     1     1     1     1     1
          1     1     1     1     1     1     1     1     1     1     1     1     1     1     1     0
  46      1     1     1     1     1     1     1     1     1     1     1     1     1     1     1     1     1     1     1     1
          1     1     1     1     1     1     1     1     1     1     1     1     1     1     1     1     1     1     1     1
          1     1     1     1     1     1     1     1     1     1     1     1     1     1     1     1     1     1     1     1
          1     1     1     1     1     1     1     1     1     1     1     1     1     1     1     1
  47      1     1     1     1     1     1     1     1     1     1     1     1     1     1     1     1     1     1     1     1
          1     1     1     1     1     1     1     1     1     1     1     1     1     1     1     1     1     1     1     1
          1     1     1     1     1     1     1     1     1     1     1     1     1     1     1     1     1     1     1     1
          1     1     1     1     1     1     1     1     1     1     1     1     1     1     1     1
  48      1     1     1     1     1     1     1     1     1     1     1     1     1     1     1     1     1     1     1     1
          1     1     1     1     1     1     1     1     1     1     1     1     1     1     1     1     1     1     1     1
          1     1     1     1     1     1     1     1     1     1     1     1     1     1     1     1     1     1     1     1
          1     1     1     1     1     1     1     1     1     1     1     1     1     1     1     1
  49      1     1     1     1     1     1     1     1     1     1     1     1     1     1     1     1     1     1     1     1
          1     1     1     1     1     1     1     1     1     1     1     1     1     1     1     1     1     1     1     1
          1     1     1     1     1     1     1     1     1     1     1     1     1     1     1     1     1     1     1     1
          1     1     1     1     1     1     1     1     1     1     1     1     1     1     1     1
  50      1     1     1     1     1     1     1     1     1     1     1     1     1     1     1     1     1     1     1     1
          1     1     1     1     1     1     1     1     1     1     1     1     1     1     1     1     1     1     1     1
          1     1     1     1     1     1     1     1     1     1     1     1     1     1     1     1     1     1     1     1
          1     1     1     1     1     1     1     1     1     1     1     1     1     1     1     1
  51      1     1     1     1     1     1     1     1     1     1     1     1     1     1     1     1     1     1     1     1
          1     1     1     1     1     1     1     1     1     1     1     1     1     1     1     1     1     1     1     1
          1     1     1     1     1     1     1     1     1     1     1     1     1     1     1     1     1     1     1     1
          1     1     1     1     1     1     1     1     1     1     1     1     1     1     1     1
  52      1     1     1     1     1     1     1     1     1     1     1     1     1     1     1     1     1     1     1     1
          1     1     1     1     1     1     1     1     1     1     1     1     1     1     1     1     1     1     1     1
          1     1     1     1     1     1     1     1     1     1     1     1     1     1     1     1     1     1     1     1
          1     1     1     1     1     1     1     1     1     1     1     1     1     1     1     1
  53      1     1     1     1     1     1     1     1     1     1     1     1     1     1     1     1     1     1     1     1
          1     1     1     1     1     1     1     1     1     1     1     1     1     1     1     1     1     1     1     1
          1     1     1     1     1     1     1     1     1     1     1     1     1     1     1     1     1     1     1     1
          1     1     1     1     1     1     1     1     1     1     1     1     1     1     1     1
  54      1     1     1     1     1     1     1     1     1     1     1     1     1     1     1     1     1     1     1     1
          1     1     1     1     1     1     1     1     1     1     1     1     1     1     1     1     1     1     1     1
          1     1     1     1     1     1     1     1     1     1     1     1     1     1     1     1     1     1     1     1
          1     1     1     1     1     1     1     1     1     1     1     1     1     1     1     1
  55      1     1     1     1     1     1     1     1     1     1     1     1     1     1     1     1     1     1     1     1
          1     1     1     1     1     1     1     1     1     1     1     1     1     1     1     1     1     1     1     1
          1     1     1     1     1     1     1     1     1     1     1     1     1     1     1     1     1     1     1     1
          1     1     1     1     1     1     1     1     1     1     1     1     1     1     1     1
  56      1     1     1     1     1     1     1     1     1     1     1     1     1     1     1     1     1     1     1     1
          1     1     1     1     1     1     1     1     1     1     1     1     1     1     1     1     1     1     1     1
          1     1     1     1     1     1     1     1     1     1     1     1     1     1     1     1     1     1     1     1
          1     1     1     1     1     1     1     1     1     1     1     1     1     1     1     1
  57      1     1     1     1     1     1     1     1     1     1     1     1     1     1     1     1     1     1     1     1
          1     1     1     1     1     1     1     1     1     1     1     1     1     1     1     1     1     1     1     1
          1     1     1     1     1     1     1     1     1     1     1     1     1     1     1     1     1     1     1     1
          1     1     1     1     1     1     1     1     1     1     1     1     1     1     1     1
  58      1     1     1     1     1     1     1     1     1     1     1     1     1     1     1     1     1     1     1     1
          1     1     0     1     1     1     1     1     1     1     1     1     1     1     1     1     1     1     1     1
          1     1     1     1     1     1     1     1     1     1     1     1     1     1     1     1     1     1     1     1
          1     1     1     1     1     1     1     1     1     1     1     1     1     1     1     1
  59      1     1     1     1     1     1     1     1     1     1     1     1     1     1     1     1     1     1     1     1
          1     1     1     1     1     1     1     1     1     1     1     1     1     1     1     1     1     1     1     1
          1     1     1     1     1     1     1     1     1     1     1     1     1     1     1     1     1     1     1     1
          1     1     1     1     1     1     1     1     1     1     1     1     1     1     1     1
  60      1     1     1     1     1     1     1     1     1     1     1     1     1     1     1     1     1     1     1     1
          1     1     1     1     1     1     1     1     1     1     1     1     1     1     1     1     1     1     1     1
          1     1     1     1     1     1     1     1     1     1     1     1     1     1     1     1     1     1     1     1
          1     1     1     1     1     1     1     1     1     1     1     1     1     1     1     1
  61      1     1     1     1     1     1     1     1     1     1     1     1     1     1     1     1     1     1     1     1
          1     0     1     1     1     1     1     1     1     1     1     1     1     1     1     1     1     1     1     1
          1     1     1     1     1     1     1     1     1     1     1     1     1     1     1     1     1     1     1     1
          1     1     1     1     1     1     1     1     1     1     1     1     1     1     1     1
  62      1     1     1     1     1     1     1     1     1     1     1     1     1     1     1     1     1     1     1     1
          1     0     1     1     1     1     1     1     1     1     1     1     1     1     1     1     1     1     1     1
          1     1     1     1     1     1     1     1     1     1     1     1     1     1     1     1     1     1     1     1
          1     1     1     1     1     1     1     1     1     1     1     1     1     1     1     1
  63      1     1     1     1     1     1     1     1     1     1     1     1     1     1     1     1     1     1     1     1
          1     1     1     1     1     1     1     1     1     1     1     1     1     1     1     1     1     1     1     1
          1     1     1     1     1     1     1     1     1     1     1     1     1     1     1     1     1     1     1     1
          1     1     1     1     1     1     1     1     1     1     1     1     1     1     1     1
  64      1     1     1     1     1     1     1     1     1     1     1     1     1     1     1     1     1     1     1     1
          0     1     1     1     1     1     1     1     1     1     1     1     1     1     1     1     1     1     1     1
          1     1     1     1     1     1     1     1     1     1     1     1     1     1     1     1     1     1     1     1
          1     1     1     1     1     1     1     1     1     1     1     1     1     1     1     1
  65      1     1     1     1     1     1     1     1     1     1     1     1     1     1     1     1     1     1     1     1
          0     1     1     1     1     1     1     1     1     1     1     1     1     1     1     1     1     1     1     1
          1     1     1     1     1     1     1     1     1     1     1     1     1     1     1     1     1     1     1     1
          1     1     1     1     1     1     1     1     1     1     1     1     1     1     1     1
  66      1     1     1     1     1     1     1     1     1     1     1     1     1     1     1     1     1     1     1     1
          0     1     1     1     1     1     1     1     1     1     1     1     1     1     1     1     1     1     1     1
          1     1     1     1     1     1     1     1     1     1     1     1     1     1     1     1     1     1     1     1
          1     1     1     1     1     1     1     1     1     1     1     1     1     1     1     1
  67      1     1     1     1     1     1     1     1     1     1     1     1     1     1     1     1     1     1     1     1
          1     1     1     1     1     1     1     1     1     1     1     1     1     1     1     1     1     1     1     1
          1     1     1     1     1     1     1     1     1     1     1     1     1     1     1     1     1     1     1     1
          1     1     1     1     1     1     1     1     1     1     1     1     1     1     1     1
  68      1     1     1     1     1     1     1     1     1     1     1     1     1     1     1     1     1     1     1     0
          1     1     1     1     1     1     1     1     1     1     1     1     1     1     1     1     1     1     1     1
          1     1     1     1     1     1     1     1     1     1     1     1     1     1     1     1     1     1     1     1
          1     1     1     1     1     1     1     1     1     1     1     1     1     1     1     1
  69      1     1     1     1     1     1     1     1     1     1     1     1     1     1     1     1     1     1     1     0
          1     1     1     1     1     1     1     1     1     1     1     1     1     1     1     1     1     1     1     1
          1     1     1     1     1     1     1     1     1     1     1     1     1     1     1     1     1     1     1     1
          1     1     1     1     1     1     1     1     1     1     1     1     1     1     1     1
  70      1     1     1     1     1     1     1     1     1     1     1     1     1     1     1     1     1     1     1     0
          1     1     1     1     1     1     1     1     1     1     1     1     1     1     1     1     1     1     1     1
          1     1     1     1     1     1     1     1     1     1     1     1     1     1     1     1     1     1     1     1
          1     1     1     1     1     1     1     1     1     1     1     1     1     1     1     1
  71      1     1     1     1     1     1     1     1     1     1     1     1     1     1     1     1     1     1     0     1
          1     1     1     1     1     1     1     1     1     1     1     1     1     1     1     1     1     1     1     1
          1     1     1     1     1     1     1     1     1     1     1     1     1     1     1     1     1     1     1     1
          1     1     1     1     1     1     1     1     1     1     1     1     1     1     1     1
  72      0     0     0     0     0     0     0     0     0     0     0     0     0     0     0     0     0     0     0     0
          0     0     0     0     0     0     0     0     0     0     0     0     0     0     0     0     0     0     0     0
          0     0     0     0     0     0     0     0     0     0     0     0     0     0     0     0     0     0     0     0
          0     0     0     0     0     0     0     0     0     0     0     0     0     0     0     0
  73      0     0     0     0     0     0     0     0     0     0     0     0     0     0     0     0     0     0     0     0
          0     0     0     0     0     0     0     0     0     0     0     0     0     0     0     0     0     0     0     0
          0     0     0     0     0     0     0     0     0     0     0     0     0     0     0     0     0     0     0     0
          0     0     0     0     0     0     0     0     0     0     0     0     0     0     0     0
  74      0     0     0     0     0     0     0     0     0     0     0     0     0     0     0     0     0     0     0     0
          0     0     0     0     0     0     0     0     0     0     0     0     0     0     0     0     0     0     0     0
          0     0     0     0     0     0     0     0     0     0     0     0     0     0     0     0     0     0     0     0
          0     0     0     0     0     0     0     0     0     0     0     0     0     0     0     0
  75      0     0     0     0     0     0     0     0     0     0     0     0     0     0     0     0     0     0     0     0
          0     0     0     0     0     0     0     0     0     0     0     0     0     0     0     0     0     0     0     0
          0     0     0     0     0     0     0     0     0     0     0     0     0     0     0     0     0     0     0     0
          0     0     0     0     0     0     0     0     0     0     0     0     0     0     0     0
  76      0     0     0     0     0     0     0     0     0     0     0     0     0     0     0     0     0     0     0     0
          0     0     0     0     0     0     0     0     0     0     0     0     0     0     0     0     0     0     0     0
          0     0     0     0     0     0     0     0     0     0     0     0     0     0     0     0     0     0     0     0
          0     0     0     0     0     0     0     0     0     0     0     0     0     0     0     0
  77      0     0     0     0     0     0     0     0     0     0     0     0     0     0     0     0     0     0     0     0
          0     0     0     0     0     0     0     0     0     0     0     0     0     0     0     0     0     0     0     0
          0     0     0     0     0     0     0     0     0     0     0     0     0     0     0     0     0     0     0     0
          0     0     0     0     0     0     0     0     0     0     0     0     0     0     0     0
  78      0     0     0     0     0     0     0     0     0     0     0     0     0     0     0     0     0     0     0     0
          0     0     0     0     0     0     0     0     0     0     0     0     0     0     0     0     0     0     0     0
          0     0     0     0     0     0     0     0     0     0     0     0     0     0     0     0     0     0     0     0
          0     0     0     0     0     0     0     0     0     0     0     0     0     0     0     0
  79      0     0     0     0     0     0     0     0     0     0     0     0     0     0     0     0     0     0     0     0
          0     0     0     0     0     0     0     0     0     0     0     0     0     0     0     0     0     0     0     0
          0     0     0     0     0     0     0     0     0     0     0     0     0     0     0     0     0     0     0     0
          0     0     0     0     0     0     0     0     0     0     0     0     0     0     0     0
  80      0     0     0     0     0     0     0     0     0     0     0     0     0     0     0     0     0     0     0     0
          0     0     0     0     0     0     0     0     0     0     0     0     0     0     0     0     0     0     0     0
          0     0     0     0     0     0     0     0     0     0     0     0     0     0     0     0     0     0     0     0
          0     0     0     0     0     0     0     0     0     0     0     0     0     0     0     0
  81      0     0     0     0     0     0     0     0     0     0     0     0     0     0     0     0     0     0     0     0
          0     0     0     0     0     0     0     0     0     0     0     0     0     0     0     0     0     0     0     0
          0     0     0     0     0     0     0     0     0     0     0     0     0     0     0     0     0     0     0     0
          0     0     0     0     0     0     0     0     0     0     0     0     0     0     0     0
  82      0     0     0     0     0     0     0     0     0     0     0     0     0     0     0     0     0     0     0     0
          0     0     0     0     0     0     0     0     0     0     0     0     0     0     0     0     0     0     0     0
          0     0     0     0     0     0     0     0     0     0     0     0     0     0     0     0     0     0     0     0
          0     0     0     0     0     0     0     0     0     0     0     0     0     0     0     0
  83      0     0     0     0     0     0     0     0     0     0     0     0     0     0     0     0     0     0     0     0
          0     0     0     0     0     0     0     0     0     0     0     0     0     0     0     0     0     0     0     0
          0     0     0     0     0     0     0     0     0     0     0     0     0     0     0     0     0     0     0     0
          0     0     0     0     0     0     0     0     0     0     0     0     0     0     0     0
  84      0     0     0     0     0     0     0     0     0     0     0     0     0     0     0     0     0     0     0     0
          0     0     0     0     0     0     0     0     0     0     0     0     0     0     0     0     0     0     0     0
          0     0     0     0     0     0     0     0     0     0     0     0     0     0     0     0     0     0     0     0
          0     0     0     0     0     0     0     0     0     0     0     0     0     0     0     0
  85      0     0     0     0     0     0     0     0     0     0     0     0     0     0     0     0     0     0     0     0
          0     0     0     0     0     0     0     0     0     0     0     0     0     0     0     0     0     0     0     0
          0     0     0     0     0     0     0     0     0     0     0     0     0     0     0     0     0     0     0     0
          0     0     0     0     0     0     0     0     0     0     0     0     0     0     0     0
  86      0     0     0     0     0     0     0     0     0     0     0     0     0     0     0     0     0     0     0     0
          0     0     0     0     0     0     0     0     0     0     0     0     0     0     0     0     0     0     0     0
          0     0     0     0     0     0     0     0     0     0     0     0     0     0     0     0     0     0     0     0
          0     0     0     0     0     0     0     0     0     0     0     0     0     0     0     0
  87      0     0     0     0     0     0     0     0     0     0     0     0     0     0     0     0     0     0     0     0
          0     0     0     0     0     0     0     0     0     0     0     0     0     0     0     0     0     0     0     0
          0     0     0     0     0     0     0     0     0     0     0     0     0     0     0     0     0     0     0     0
          0     0     0     0     0     0     0     0     0     0     0     0     0     0     0     0
  88      0     0     0     0     0     0     0     0     0     0     0     0     0     0     0     0     0     0     0     0
          0     0     0     0     0     0     0     0     0     0     0     0     0     0     0     0     0     0     0     0
          0     0     0     0     0     0     0     0     0     0     0     0     0     0     0     0     0     0     0     0
          0     0     0     0     0     0     0     0     0     0     0     0     0     0     0     0
  89      0     0     0     0     0     0     0     0     0     0     0     0     0     0     0     0     0     0     0     0
          0     0     0     0     0     0     0     0     0     0     0     0     0     0     0     0     0     0     0     0
          0     0     0     0     0     0     0     0     0     0     0     0     0     0     0     0     0     0     0     0
          0     0     0     0     0     0     0     0     0     0     0     0     0     0     0     0
  90      0     0     0     0     0     0     0     0     0     0     0     0     0     0     0     0     0     0     0     0
          0     0     0     0     0     0     0     0     0     0     0     0     0     0     0     0     0     0     0     0
          0     0     0     0     0     0     0     0     0     0     0     0     0     0     0     0     0     0     0     0
          0     0     0     0     0     0     0     0     0     0     0     0     0     0     0     0
  91      0     0     0     0     0     0     0     0     0     0     0     0     0     0     0     0     0     0     0     0
          0     0     0     0     0     0     0     0     0     0     0     0     0     0     0     0     0     0     0     0
          0     0     0     0     0     0     0     0     0     0     0     0     0     0     0     0     0     0     0     0
          0     0     0     0     0     0     0     0     0     0     0     0     0     0     0     0
  92      0     0     0     0     0     0     0     0     0     0     0     0     0     0     0     0     0     0     0     0
          0     0     0     0     0     0     0     0     0     0     0     0     0     0     0     0     0     0     0     0
          0     0     0     0     0     0     0     0     0     0     0     0     0     0     0     0     0     0     0     0
          0     0     0     0     0     0     0     0     0     0     0     0     0     0     0     0
  93      0     0     0     0     0     0     0     0     0     0     0     0     0     0     0     0     0     0     0     0
          0     0     0     0     0     0     0     0     0     0     0     0     0     0     0     0     0     0     0     0
          0     0     0     0     0     0     0     0     0     0     0     0     0     0     0     0     0     0     0     0
          0     0     0     0     0     0     0     0     0     0     0     0     0     0     0     0
  94      0     0     0     0     0     0     0     0     0     0     0     0     0     0     0     0     0     0     0     0
          0     0     0     0     0     0     0     0     0     0     0     0     0     0     0     0     0     0     0     0
          0     0     0     0     0     0     0     0     0     0     0     0     0     0     0     0     0     0     0     0
          0     0     0     0     0     0     0     0     0     0     0     0     0     0     0     0
  95      0     0     0     0     0     0     0     0     0     0     0     0     0     0     0     0     0     0     0     0
          0     0     0     0     0     0     0     0     0     0     0     0     0     0     0     0     0     0     0     0
          0     0     0     0     0     0     0     0     0     0     0     0     0     0     0     0     0     0     0     0
          0     0     0     0     0     0     0     0     0     0     0     0     0     0     0     0
  96      0     0     0     0     0     0     0     0     0     0     0     0     0     0     0     0     0     0     0     0
          0     0     0     0     0     0     0     0     0     0     0     0     0     0     0     0     0     0     0     0
          0     0     0     0     0     0     0     0     0     0     0     0     0     0     0     0     0     0     0     0
          0     0     0     0     0     0     0     0     0     0     0     0     0     0     0     0
  97      0     0     0     0     0     0     0     0     0     0     0     0     0     0     0     0     0     0     0     0
          0     0     0     0     0     0     0     0     0     0     0     0     0     0     0     0     0     0     0     0
          0     0     0     0     0     0     0     0     0     0     0     0     0     0     0     0     0     0     0     0
          0     0     0     0     0     0     0     0     0     0     0     0     0     0     0     0
  98      0     0     0     0     0     0     0     0     0     0     0     0     0     0     0     0     0     0     0     0
          0     0     0     0     0     0     0     0     0     0     0     0     0     0     0     0     0     0     0     0
          0     0     0     0     0     0     0     0     0     0     0     0     0     0     0     0     0     0     0     0
          0     0     0     0     0     0     0     0     0     0     0     0     0     0     0     0
  99      0     0     0     0     0     0     0     0     0     0     0     0     0     0     0     0     0     0     0     0
          0     0     0     0     0     0     0     0     0     0     0     0     0     0     0     0     0     0     0     0
          0     0     0     0     0     0     0     0     0     0     0     0     0     0     0     0     0     0     0     0
          0     0     0     0     0     0     0     0     0     0     0     0     0     0     0     0
 100      0     0     0     0     0     0     0     0     0     0     0     0     0     0     0     0     0     0     0     0
          0     0     0     0     0     0     0     0     0     0     0     0     0     0     0     0     0     0     0     0
          0     0     0     0     0     0     0     0     0     0     0     0     0     0     0     0     0     0     0     0
          0     0     0     0     0     0     0     0     0     0     0     0     0     0     0     0
 101      0     0     0     0     0     0     0     0     0     0     0     0     0     0     0     0     0     0     0     0
          0     0     0     0     0     0     0     0     0     0     0     0     0     0     0     0     0     0     0     0
          0     0     0     0     0     0     0     0     0     0     0     0     0     0     0     0     0     0     0     0
          0     0     0     0     0     0     0     0     0     0     0     0     0     0     0     0
 102      0     0     0     0     0     0     0     0     0     0     0     0     0     0     0     0     0     0     0     0
          0     0     0     0     0     0     0     0     0     0     0     0     0     0     0     0     0     0     0     0
          0     0     0     0     0     0     0     0     0     0     0     0     0     0     0     0     0     0     0     0
          0     0     0     0     0     0     0     0     0     0     0     0     0     0     0     0
 103      0     0     0     0     0     0     0     0     0     0     0     0     0     0     0     0     0     0     0     0
          0     0     0     0     0     0     0     0     0     0     0     0     0     0     0     0     0     0     0     0
          0     0     0     0     0     0     0     0     0     0     0     0     0     0     0     0     0     0     0     0
          0     0     0     0     0     0     0     0     0     0     0     0     0     0     0     0
 104      0     0     0     0     0     0     0     0     0     0     0     0     0     0     0     0     0     0     0     0
          0     0     0     0     0     0     0     0     0     0     0     0     0     0     0     0     0     0     0     0
          0     0     0     0     0     0     0     0     0     0     0     0     0     0     0     0     0     0     0     0
          0     0     0     0     0     0     0     0     0     0     0     0     0     0     0     0
 105      0     0     0     0     0     0     0     0     0     0     0     0     0     0     0     0     0     0     0     0
          0     0     0     0     0     0     0     0     0     0     0     0     0     0     0     0     0     0     0     0
          0     0     0     0     0     0     0     0     0     0     0     0     0     0     0     0     0     0     0     0
          0     0     0     0     0     0     0     0     0     0     0     0     0     0     0     0
 106      0     0     0     0     0     0     0     0     0     0     0     0     0     0     0     0     0     0     0     0
          0     0     0     0     0     0     0     0     0     0     0     0     0     0     0     0     0     0     0     0
          0     0     0     0     0     0     0     0     0     0     0     0     0     0     0     0     0     0     0     0
          0     0     0     0     0     0     0     0     0     0     0     0     0     0     0     0
 107      0     0     0     0     0     0     0     0     0     0     0     0     0     0     0     0     0     0     0     0
          0     0     0     0     0     0     0     0     0     0     0     0     0     0     0     0     0     0     0     0
          0     0     0     0     0     0     0     0     0     0     0     0     0     0     0     0     0     0     0     0
          0     0     0     0     0     0     0     0     0     0     0     0     0     0     0     0
 108      0     0     0     0     0     0     0     0     0     0     0     0     0     0     0     0     0     0     0     0
          0     0     0     0     0     0     0     0     0     0     0     0     0     0     0     0     0     0     0     0
          0     0     0     0     0     0     0     0     0     0     0     0     0     0     0     0     0     0     0     0
          0     0     0     0     0     0     0     0     0     0     0     0     0     0     0     0
 109      0     0     0     0     0     0     0     0     0     0     0     0     0     0     0     0     0     0     0     0
          0     0     0     0     0     0     0     0     0     0     0     0     0     0     0     0     0     0     0     0
          0     0     0     0     0     0     0     0     0     0     0     0     0     0     0     0     0     0     0     0
          0     0     0     0     0     0     0     0     0     0     0     0     0     0     0     0
 110      0     0     0     0     0     0     0     0     0     0     0     0     0     0     0     0     0     0     0     0
          0     0     0     0     0     0     0     0     0     0     0     0     0     0     0     0     0     0     0     0
          0     0     0     0     0     0     0     0     0     0     0     0     0     0     0     0     0     0     0     0
          0     0     0     0     0     0     0     0     0     0     0     0     0     0     0     0
 111      0     0     0     0     0     0     0     0     0     0     0     0     0     0     0     0     0     0     0     0
          0     0     0     0     0     0     0     0     0     0     0     0     0     0     0     0     0     0     0     0
          0     0     0     0     0     0     0     0     0     0     0     0     0     0     0     0     0     0     0     0
          0     0     0     0     0     0     0     0     0     0     0     0     0     0     0     0
 112      0     0     0     0     0     0     0     0     0     0     0     0     0     0     0     0     0     0     0     0
          0     0     0     0     0     0     0     0     0     0     0     0     0     0     0     0     0     0     0     0
          0     0     0     0     0     0     0     0     0     0     0     0     0     0     0     0     0     0     0     0
          0     0     0     0     0     0     0     0     0     0     0     0     0     0     0     0
 113      0     0     0     0     0     0     0     0     0     0     0     0     0     0     0     0     0     0     0     0
          0     0     0     0     0     0     0     0     0     0     0     0     0     0     0     0     0     0     0     0
          0     0     0     0     0     0     0     0     0     0     0     0     0     0     0     0     0     0     0     0
          0     0     0     0     0     0     0     0     0     0     0     0     0     0     0     0
 114      0     0     0     0     0     0     0     0     0     0     0     0     0     0     0     0     0     0     0     0
          0     0     0     0     0     0     0     0     0     0     0     0     0     0     0     0     0     0     0     0
          0     0     0     0     0     0     0     0     0     0     0     0     0     0     0     0     0     0     0     0
          0     0     0     0     0     0     0     0     0     0     0     0     0     0     0     0
 115      0     0     0     0     0     0     0     0     0     0     0     0     0     0     0     0     0     0     0     0
          0     0     0     0     0     0     0     0     0     0     0     0     0     0     0     0     0     0     0     0
          0     0     0     0     0     0     0     0     0     0     0     0     0     0     0     0     0     0     0     0
          0     0     0     0     0     0     0     0     0     0     0     0     0     0     0     0
 116      0     0     0     0     0     0     0     0     0     0     0     0     0     0     0     0     0     0     0     0
          0     0     0     0     0     0     0     0     0     0     0     0     0     0     0     0     0     0     0     0
          0     0     0     0     0     0     0     0     0     0     0     0     0     0     0     0     0     0     0     0
          0     0     0     0     0     0     0     0     0     0     0     0     0     0     0     0
 117      0     0     0     0     0     0     0     0     0     0     0     0     0     0     0     0     0     0     0     0
          0     0     0     0     0     0     0     0     0     0     0     0     0     0     0     0     0     0     0     0
          0     0     0     0     0     0     0     0     0     0     0     0     0     0     0     0     0     0     0     0
          0     0     0     0     0     0     0     0     0     0     0     0     0     0     0     0
 118      0     0     0     0     0     0     0     0     0     0     0     0     0     0     0     0     0     0     0     0
          0     0     0     0     0     0     0     0     0     0     0     0     0     0     0     0     0     0     0     0
          0     0     0     0     0     0     0     0     0     0     0     0     0     0     0     0     0     0     0     0
          0     0     0     0     0     0     0     0     0     0     0     0     0     0     0     0
 119      0     0     0     0     0     0     0     0     0     0     0     0     0     0     0     0     0     0     0     0
          0     0     0     0     0     0     0     0     0     0     0     0     0     0     0     0     0     0     0     0
          0     0     0     0     0     0     0     0     0     0     0     0     0     0     0     0     0     0     0     0
          0     0     0     0     0     0     0     0     0     0     0     0     0     0     0     0
 120      0     0     0     0     0     0     0     0     0     0     0     0     0     0     0     0     0     0     0     0
          0     0     0     0     0     0     0     0     0     0     0     0     0     0     0     0     0     0     0     0
          0     0     0     0     0     0     0     0     0     0     0     0     0     0     0     0     0     0     0     0
          0     0     0     0     0     0     0     0     0     0     0     0     0     0     0     0
 121      0     0     0     0     0     0     0     0     0     0     0     0     0     0     0     0     0     0     0     0
          0     0     0     0     0     0     0     0     0     0     0     0     0     0     0     0     0     0     0     0
          0     0     0     0     0     0     0     0     0     0     0     0     0     0     0     0     0     0     0     0
          0     0     0     0     0     0     0     0     0     0     0     0     0     0     0     0
 122      0     0     0     0     0     0     0     0     0     0     0     0     0     0     0     0     0     0     0     0
          0     0     0     0     0     0     0     0     0     0     0     0     0     0     0     0     0     0     0     0
          0     0     0     0     0     0     0     0     0     0     0     0     0     0     0     0     0     0     0     0
          0     0     0     0     0     0     0     0     0     0     0     0     0     0     0     0
 123      0     0     0     0     0     0     0     0     0     0     0     0     0     0     0     0     0     0     0     0
          0     0     0     0     0     0     0     0     0     0     0     0     0     0     0     0     0     0     0     0
          0     0     0     0     0     0     0     0     0     0     0     0     0     0     0     0     0     0     0     0
          0     0     0     0     0     0     0     0     0     0     0     0     0     0     0     0
 124      0     0     0     0     0     0     0     0     0     0     0     0     0     0     0     0     0     0     0     0
          0     0     0     0     0     0     0     0     0     0     0     0     0     0     0     0     0     0     0     0
          0     0     0     0     0     0     0     0     0     0     0     0     0     0     0     0     0     0     0     0
          0     0     0     0     0     0     0     0     0     0     0     0     0     0     0     0
 125      0     0     0     0     0     0     0     0     0     0     0     0     0     0     0     0     0     0     0     0
          0     0     0     0     0     0     0     0     0     0     0     0     0     0     0     0     0     0     0     0
          0     0     0     0     0     0     0     0     0     0     0     0     0     0     0     0     0     0     0     0
          0     0     0     0     0     0     0     0     0     0     0     0     0     0     0     0
 126      0     0     0     0     0     0     0     0     0     0     0     0     0     0     0     0     0     0     0     0
          0     0     0     0     0     0     0     0     0     0     0     0     0     0     0     0     0     0     0     0
          0     0     0     0     0     0     0     0     0     0     0     0     0     0     0     0     0     0     0     0
          0     0     0     0     0     0     0     0     0     0     0     0     0     0     0     0
 127      0     0     0     0     0     0     0     0     0     0     0     0     0     0     0     0     0     0     0     0
          0     0     0     0     0     0     0     0     0     0     0     0     0     0     0     0     0     0     0     0
          0     0     0     0     0     0     0     0     0     0     0     0     0     0     0     0     0     0     0     0
          0     0     0     0     0     0     0     0     0     0     0     0     0     0     0     0
 128      0     0     0     0     0     0     0     0     0     0     0     0     0     0     0     0     0     0     0     0
          0     0     0     0     0     0     0     0     0     0     0     0     0     0     0     0     0     0     0     0
          0     0     0     0     0     0     0     0     0     0     0     0     0     0     0     0     0     0     0     0
          0     0     0     0     0     0     0     0     0     0     0     0     0     0     0     0
 129      0     0     0     0     0     0     0     0     0     0     0     0     0     0     0     0     0     0     0     0
          0     0     0     0     0     0     0     0     0     0     0     0     0     0     0     0     0     0     0     0
          0     0     0     0     0     0     0     0     0     0     0     0     0     0     0     0     0     0     0     0
          0     0     0     0     0     0     0     0     0     0     0     0     0     0     0     0
 130      0     0     0     0     0     0     0     0     0     0     0     0     0     0     0     0     0     0     0     0
          0     0     0     0     0     0     0     0     0     0     0     0     0     0     0     0     0     0     0     0
          0     0     0     0     0     0     0     0     0     0     0     0     0     0     0     0     0     0     0     0
          0     0     0     0     0     0     0     0     0     0     0     0     0     0     0     0
 131      0     0     0     0     0     0     0     0     0     0     0     0     0     0     0     0     0     0     0     0
          0     0     0     0     0     0     0     0     0     0     0     0     0     0     0     0     0     0     0     0
          0     0     0     0     0     0     0     0     0     0     0     0     0     0     0     0     0     0     0     0
          0     0     0     0     0     0     0     0     0     0     0     0     0     0     0     0



             ZONE ARRAY: sy02_Z1   
 READING ON UNIT 5015 WITH FORMAT: (FREE)              

          1     2     3     4     5     6     7     8     9    10    11    12    13    14    15    16    17    18    19    20
         21    22    23    24    25    26    27    28    29    30    31    32    33    34    35    36    37    38    39    40
         41    42    43    44    45    46    47    48    49    50    51    52    53    54    55    56    57    58    59    60
         61    62    63    64    65    66    67    68    69    70    71    72    73    74    75    76
 ............................................................................................................................
   1      0     0     0     0     0     0     0     0     0     0     0     0     0     0     0     0     0     0     0     0
          0     0     0     0     0     0     0     0     0     0     0     0     0     0     0     0     0     0     0     0
          0     0     0     0     0     0     0     0     0     0     0     0     0     0     0     0     0     0     0     0
          0     0     0     0     0     0     0     0     0     0     0     0     0     0     0     0
   2      0     0     0     0     0     0     0     0     0     0     0     0     0     0     0     0     0     0     0     0
          0     0     0     0     0     0     0     0     0     0     0     0     0     0     0     0     0     0     0     0
          0     0     0     0     0     0     0     0     0     0     0     0     0     0     0     0     0     0     0     0
          0     0     0     0     0     0     0     0     0     0     0     0     0     0     0     0
   3      0     0     0     0     0     0     0     0     0     0     0     0     0     0     0     0     0     0     0     0
          0     0     0     0     0     0     0     0     0     0     0     0     0     0     0     0     0     0     0     0
          0     0     0     0     0     0     0     0     0     0     0     0     0     0     0     0     0     0     0     0
          0     0     0     0     0     0     0     0     0     0     0     0     0     0     0     0
   4      0     0     0     0     0     0     0     0     0     0     0     0     0     0     0     0     0     0     0     0
          0     0     0     0     0     0     0     0     0     0     0     0     0     0     0     0     0     0     0     0
          0     0     0     0     0     0     0     0     0     0     0     0     0     0     0     0     0     0     0     0
          0     0     0     0     0     0     0     0     0     0     0     0     0     0     0     0
   5      0     0     0     0     0     0     0     0     0     0     0     0     0     0     0     0     0     0     0     0
          0     0     0     0     0     0     0     0     0     0     0     0     0     0     0     0     0     0     0     0
          0     0     0     0     0     0     0     0     0     0     0     0     0     0     0     0     0     0     0     0
          0     0     0     0     0     0     0     0     0     0     0     0     0     0     0     0
   6      0     0     0     0     0     0     0     0     0     0     0     0     0     0     0     0     0     0     0     0
          0     0     0     0     0     0     0     0     0     0     0     0     0     0     0     0     0     0     0     0
          0     0     0     0     0     0     0     0     0     0     0     0     0     0     0     0     0     0     0     0
          0     0     0     0     0     0     0     0     0     0     0     0     0     0     0     0
   7      0     0     0     0     0     0     0     0     0     0     0     0     0     0     0     0     0     0     0     0
          0     0     0     0     0     0     0     0     0     0     0     0     0     0     0     0     0     0     0     0
          0     0     0     0     0     0     0     0     0     0     0     0     0     0     0     0     0     0     0     0
          0     0     0     0     0     0     0     0     0     0     0     0     0     0     0     0
   8      0     0     0     0     0     0     0     0     0     0     0     0     0     0     0     0     0     0     0     0
          0     0     0     0     0     0     0     0     0     0     0     0     0     0     0     0     0     0     0     0
          0     0     0     0     0     0     0     0     0     0     0     0     0     0     0     0     0     0     0     0
          0     0     0     0     0     0     0     0     0     0     0     0     0     0     0     0
   9      0     0     0     0     0     0     0     0     0     0     0     0     0     0     0     0     0     0     0     0
          0     0     0     0     0     0     0     0     0     0     0     0     0     0     0     0     0     0     0     0
          0     0     0     0     0     0     0     0     0     0     0     0     0     0     0     0     0     0     0     0
          0     0     0     0     0     0     0     0     0     0     0     0     0     0     0     0
  10      0     0     0     0     0     0     0     0     0     0     0     0     0     0     0     0     0     0     0     0
          0     0     0     0     0     0     0     0     0     0     0     0     0     0     0     0     0     0     0     0
          0     0     0     0     0     0     0     0     0     0     0     0     0     0     0     0     0     0     0     0
          0     0     0     0     0     0     0     0     0     0     0     0     0     0     0     0
  11      0     0     0     0     0     0     0     0     0     0     0     0     0     0     0     0     0     0     0     0
          0     0     0     0     0     0     0     0     0     0     0     0     0     0     0     0     0     0     0     0
          0     0     0     0     0     0     0     0     0     0     0     0     0     0     0     0     0     0     0     0
          0     0     0     0     0     0     0     0     0     0     0     0     0     0     0     0
  12      0     0     0     0     0     0     0     0     0     0     0     0     0     0     0     0     0     0     0     0
          0     0     0     0     0     0     0     0     0     0     0     0     0     0     0     0     0     0     0     0
          0     0     0     0     0     0     0     0     0     0     0     0     0     0     0     0     0     0     0     0
          0     0     0     0     0     0     0     0     0     0     0     0     0     0     0     0
  13      0     0     0     0     0     0     0     0     0     0     0     0     0     0     0     0     0     0     0     0
          0     0     0     0     0     0     0     0     0     0     0     0     0     0     0     0     0     0     0     0
          0     0     0     0     0     0     0     0     0     0     0     0     0     0     0     0     0     0     0     0
          0     0     0     0     0     0     0     0     0     0     0     0     0     0     0     0
  14      0     0     0     0     0     0     0     0     0     0     0     0     0     0     0     0     0     0     0     0
          0     0     0     0     0     0     0     0     0     0     0     0     0     0     0     0     0     0     0     0
          0     0     0     0     0     0     0     0     0     0     0     0     0     0     0     0     0     0     0     0
          0     0     0     0     0     0     0     0     0     0     0     0     0     0     0     0
  15      0     0     0     0     0     0     0     0     0     0     0     0     0     0     0     0     0     0     0     0
          0     0     0     0     0     0     0     0     0     0     0     0     0     0     0     0     0     0     0     0
          0     0     0     0     0     0     0     0     0     0     0     0     0     0     0     0     0     0     0     0
          0     0     0     0     0     0     0     0     0     0     0     0     0     0     0     0
  16      0     0     0     0     0     0     0     0     0     0     0     0     0     0     0     0     0     0     0     0
          0     0     0     0     0     0     0     0     0     0     0     0     0     0     0     0     0     0     0     0
          0     0     0     0     0     0     0     0     0     0     0     0     0     0     0     0     0     0     0     0
          0     0     0     0     0     0     0     0     0     0     0     0     0     0     0     0
  17      0     0     0     0     0     0     0     0     0     0     0     0     0     0     0     0     0     0     0     0
          0     0     0     0     0     0     0     0     0     0     0     0     0     0     0     0     0     0     0     0
          0     0     0     0     0     0     0     0     0     0     0     0     0     0     0     0     0     0     0     0
          0     0     0     0     0     0     0     0     0     0     0     0     0     0     0     0
  18      0     0     0     0     0     0     0     0     0     0     0     0     0     0     0     0     0     0     0     0
          0     0     0     0     0     0     0     0     0     0     0     0     0     0     0     0     0     0     0     0
          0     0     0     0     0     0     0     0     0     0     0     0     0     0     0     0     0     0     0     0
          0     0     0     0     0     0     0     0     0     0     0     0     0     0     0     0
  19      0     0     0     0     0     0     0     0     0     0     0     0     0     0     0     0     0     0     0     0
          0     0     0     0     0     0     0     0     0     0     0     0     0     0     0     0     0     0     0     0
          0     0     0     0     0     0     0     0     0     0     0     0     0     0     0     0     0     0     0     0
          0     0     0     0     0     0     0     0     0     0     0     0     0     0     0     0
  20      0     0     0     0     0     0     0     0     0     0     0     0     0     0     0     0     0     0     0     0
          0     0     0     0     0     0     0     0     0     0     0     0     0     0     0     0     0     0     0     0
          0     0     0     0     0     0     0     0     0     0     0     0     0     0     0     0     0     0     0     0
          0     0     0     0     0     0     0     0     0     0     0     0     0     0     0     0
  21      0     0     0     0     0     0     0     0     0     0     0     0     0     0     0     0     0     0     0     0
          0     0     0     0     0     0     0     0     0     0     0     0     0     0     0     0     0     0     0     0
          0     0     0     0     0     0     0     0     0     0     0     0     0     0     0     0     0     0     0     0
          0     0     0     0     0     0     0     0     0     0     0     0     0     0     0     0
  22      0     0     0     0     0     0     0     0     0     0     0     0     0     0     0     0     0     0     0     0
          0     0     0     0     0     0     0     0     0     0     0     0     0     0     0     0     0     0     0     0
          0     0     0     0     0     0     0     0     0     0     0     0     0     0     0     0     0     0     0     0
          0     0     0     0     0     0     0     0     0     0     0     0     0     0     0     0
  23      0     0     0     0     0     0     0     0     0     0     0     0     0     0     0     0     0     0     0     0
          0     0     0     0     0     0     0     0     0     0     0     0     0     0     0     0     0     0     0     0
          0     0     0     0     0     0     0     0     0     0     0     0     0     0     0     0     0     0     0     0
          0     0     0     0     0     0     0     0     0     0     0     0     0     0     0     0
  24      0     0     0     0     0     0     0     0     0     0     0     0     0     0     0     0     0     0     0     0
          0     0     0     0     0     0     0     0     0     0     0     0     0     0     0     0     0     0     0     0
          0     0     0     0     0     0     0     0     0     0     0     0     0     0     0     0     0     0     0     0
          0     0     0     0     0     0     0     0     0     0     0     0     0     0     0     0
  25      0     0     0     0     0     0     0     0     0     0     0     0     0     0     0     0     0     0     0     0
          0     0     0     0     0     0     0     0     0     0     0     0     0     0     0     0     0     0     0     0
          0     0     0     0     0     0     0     0     0     0     0     0     0     0     0     0     0     0     0     0
          0     0     0     0     0     0     0     0     0     0     0     0     0     0     0     0
  26      0     0     0     0     0     0     0     0     0     0     0     0     0     0     0     0     0     0     0     0
          0     0     0     0     0     0     0     0     0     0     0     0     0     0     0     0     0     0     0     0
          0     0     0     0     0     0     0     0     0     0     0     0     0     0     0     0     0     0     0     0
          0     0     0     0     0     0     0     0     0     0     0     0     0     0     0     0
  27      0     0     0     0     0     0     0     0     0     0     0     0     0     0     0     0     0     0     0     0
          0     0     0     0     0     0     0     0     0     0     0     0     0     0     0     0     0     0     0     0
          0     0     0     0     0     0     0     0     0     0     0     0     0     0     0     0     0     0     0     0
          0     0     0     0     0     0     0     0     0     0     0     0     0     0     0     0
  28      0     0     0     0     0     0     0     0     0     0     0     0     0     0     0     0     0     0     0     0
          0     0     0     0     0     0     0     0     0     0     0     0     0     0     0     0     0     0     0     0
          0     0     0     0     0     0     0     0     0     0     0     0     0     0     0     0     0     0     0     0
          0     0     0     0     0     0     0     0     0     0     0     0     0     0     0     0
  29      0     0     0     0     0     0     0     0     0     0     0     0     0     0     0     0     0     0     0     0
          0     0     0     0     0     0     0     0     0     0     0     0     0     0     0     0     0     0     0     0
          0     0     0     0     0     0     0     0     0     0     0     0     0     0     0     0     0     0     0     0
          0     0     0     0     0     0     0     0     0     0     0     0     0     0     0     0
  30      0     0     0     0     0     0     0     0     0     0     0     0     0     0     0     0     0     0     0     0
          0     0     0     0     0     0     0     0     0     0     0     0     0     0     0     0     0     0     0     0
          0     0     0     0     0     0     0     0     0     0     0     0     0     0     0     0     0     0     0     0
          0     0     0     0     0     0     0     0     0     0     0     0     0     0     0     0
  31      0     0     0     0     0     0     0     0     0     0     0     0     0     0     0     0     0     0     0     0
          0     0     0     0     0     0     0     0     0     0     0     0     0     0     0     0     0     0     0     0
          0     0     0     0     0     0     0     0     0     0     0     0     0     0     0     0     0     0     0     0
          0     0     0     0     0     0     0     0     0     0     0     0     0     0     0     0
  32      0     0     0     0     0     0     0     0     0     0     0     0     0     0     0     0     0     0     0     0
          0     0     0     0     0     0     0     0     0     0     0     0     0     0     0     0     0     0     0     0
          0     0     0     0     0     0     0     0     0     0     0     0     0     0     0     0     0     0     0     0
          0     0     0     0     0     0     0     0     0     0     0     0     0     0     0     0
  33      0     0     0     0     0     0     0     0     0     0     0     0     0     0     0     0     0     0     0     0
          0     0     0     0     0     0     0     0     0     0     0     0     0     0     0     0     0     0     0     0
          0     0     0     0     0     0     0     0     0     0     0     0     0     0     0     0     0     0     0     0
          0     0     0     0     0     0     0     0     0     0     0     0     0     0     0     0
  34      0     0     0     0     0     0     0     0     0     0     0     0     0     0     0     0     0     0     0     0
          0     0     0     0     0     0     0     0     0     0     0     0     0     0     0     0     0     0     0     0
          0     0     0     0     0     0     0     0     0     0     0     0     0     0     0     0     0     0     0     0
          0     0     0     0     0     0     0     0     0     0     0     0     0     0     0     0
  35      0     0     0     0     0     0     0     0     0     0     0     0     0     0     0     0     0     0     0     0
          0     0     0     0     0     0     0     0     0     0     0     0     0     0     0     0     0     0     0     0
          0     0     0     0     0     0     0     0     0     0     0     0     0     0     0     0     0     0     0     0
          0     0     0     0     0     0     0     0     0     0     0     0     0     0     0     0
  36      0     0     0     0     0     0     0     0     0     0     0     0     0     0     0     0     0     0     0     0
          0     0     0     0     0     0     0     0     0     0     0     0     0     0     0     0     0     0     0     0
          0     0     0     0     0     0     0     0     0     0     0     0     0     0     0     0     0     0     0     0
          0     0     0     0     0     0     0     0     0     0     0     0     0     0     0     0
  37      0     0     0     0     0     0     0     0     0     0     0     0     0     0     0     0     0     0     0     0
          0     0     0     0     0     0     0     0     0     0     0     0     0     0     0     0     0     0     0     0
          0     0     0     0     0     0     0     0     0     0     0     0     0     0     0     0     0     0     0     0
          0     0     0     0     0     0     0     0     0     0     0     0     0     0     0     0
  38      0     0     0     0     0     0     0     0     0     0     0     0     0     0     0     0     0     0     0     0
          0     0     0     0     0     0     0     0     0     0     0     0     0     0     0     0     0     0     0     0
          0     0     0     0     0     0     0     0     0     0     0     0     0     0     0     0     0     0     0     0
          0     0     0     0     0     0     0     0     0     0     0     0     0     0     0     0
  39      0     0     0     0     0     0     0     0     0     0     0     0     0     0     0     0     0     0     0     0
          0     0     0     0     0     0     0     0     0     0     0     0     0     0     0     0     0     0     0     0
          0     0     0     0     0     0     0     0     0     0     0     0     0     0     0     0     0     0     0     0
          0     0     0     0     0     0     0     0     0     0     0     0     0     0     0     0
  40      0     0     0     0     0     0     0     0     0     0     0     0     0     0     0     0     0     0     0     0
          0     0     0     0     0     0     0     0     0     0     0     0     0     0     0     0     0     0     0     0
          0     0     0     0     0     0     0     0     0     0     0     0     0     0     0     0     0     0     0     0
          0     0     0     0     0     0     0     0     0     0     0     0     0     0     0     0
  41      0     0     0     0     0     0     0     0     0     0     0     0     0     0     0     0     0     0     0     0
          0     0     0     0     0     0     0     0     0     0     0     0     0     0     0     0     0     0     0     0
          0     0     0     0     0     0     0     0     0     0     0     0     0     0     0     0     0     0     0     0
          0     0     0     0     0     0     0     0     0     0     0     0     0     0     0     0
  42      0     0     0     0     0     0     0     0     0     0     0     0     0     0     0     0     0     0     0     0
          0     0     0     0     0     0     0     0     0     0     0     0     0     0     0     0     0     0     0     0
          0     0     0     0     0     0     0     0     0     0     0     0     0     0     0     0     0     0     0     0
          0     0     0     0     0     0     0     0     0     0     0     0     0     0     0     0
  43      0     0     0     0     0     0     0     0     0     0     0     0     0     0     0     0     0     0     0     0
          0     0     0     0     0     0     0     0     0     0     0     0     0     0     0     0     0     0     0     0
          0     0     0     0     0     0     0     0     0     0     0     0     0     0     0     0     0     0     0     0
          0     0     0     0     0     0     0     0     0     0     0     0     0     0     0     0
  44      0     0     0     0     0     0     0     0     0     0     0     0     0     0     0     0     0     0     0     0
          0     0     0     0     0     0     0     0     0     0     0     0     0     0     0     0     0     0     0     0
          0     0     0     0     0     0     0     0     0     0     0     0     0     0     0     0     0     0     0     0
          0     0     0     0     0     0     0     0     0     0     0     0     0     0     0     0
  45      0     0     0     0     0     0     0     0     0     0     0     0     0     0     0     0     0     0     0     0
          0     0     0     0     0     0     0     0     0     0     0     0     0     0     0     0     0     0     0     0
          0     0     0     0     0     0     0     0     0     0     0     0     0     0     0     0     0     0     0     0
          0     0     0     0     0     0     0     0     0     0     0     0     0     0     0     0
  46      0     0     0     0     0     0     0     0     0     0     0     0     0     0     0     0     0     0     0     0
          0     0     0     0     0     0     0     0     0     0     0     0     0     0     0     0     0     0     0     0
          0     0     0     0     0     0     0     0     0     0     0     0     0     0     0     0     0     0     0     0
          0     0     0     0     0     0     0     0     0     0     0     0     0     0     0     0
  47      0     0     0     0     0     0     0     0     0     0     0     0     0     0     0     0     0     0     0     0
          0     0     0     0     0     0     0     0     0     0     0     0     0     0     0     0     0     0     0     0
          0     0     0     0     0     0     0     0     0     0     0     0     0     0     0     0     0     0     0     0
          0     0     0     0     0     0     0     0     0     0     0     0     0     0     0     0
  48      0     0     0     0     0     0     0     0     0     0     0     0     0     0     0     0     0     0     0     0
          0     0     0     0     0     0     0     0     0     0     0     0     0     0     0     0     0     0     0     0
          0     0     0     0     0     0     0     0     0     0     0     0     0     0     0     0     0     0     0     0
          0     0     0     0     0     0     0     0     0     0     0     0     0     0     0     0
  49      0     0     0     0     0     0     0     0     0     0     0     0     0     0     0     0     0     0     0     0
          0     0     0     0     0     0     0     0     0     0     0     0     0     0     0     0     0     0     0     0
          0     0     0     0     0     0     0     0     0     0     0     0     0     0     0     0     0     0     0     0
          0     0     0     0     0     0     0     0     0     0     0     0     0     0     0     0
  50      0     0     0     0     0     0     0     0     0     0     0     0     0     0     0     0     0     0     0     0
          0     0     0     0     0     0     0     0     0     0     0     0     0     0     0     0     0     0     0     0
          0     0     0     0     0     0     0     0     0     0     0     0     0     0     0     0     0     0     0     0
          0     0     0     0     0     0     0     0     0     0     0     0     0     0     0     0
  51      0     0     0     0     0     0     0     0     0     0     0     0     0     0     0     0     0     0     0     0
          0     0     0     0     0     0     0     0     0     0     0     0     0     0     0     0     0     0     0     0
          0     0     0     0     0     0     0     0     0     0     0     0     0     0     0     0     0     0     0     0
          0     0     0     0     0     0     0     0     0     0     0     0     0     0     0     0
  52      0     0     0     0     0     0     0     0     0     0     0     0     0     0     0     0     0     0     0     0
          0     0     0     0     0     0     0     0     0     0     0     0     0     0     0     0     0     0     0     0
          0     0     0     0     0     0     0     0     0     0     0     0     0     0     0     0     0     0     0     0
          0     0     0     0     0     0     0     0     0     0     0     0     0     0     0     0
  53      0     0     0     0     0     0     0     0     0     0     0     0     0     0     0     0     0     0     0     0
          0     0     0     0     0     0     0     0     0     0     0     0     0     0     0     0     0     0     0     0
          0     0     0     0     0     0     0     0     0     0     0     0     0     0     0     0     0     0     0     0
          0     0     0     0     0     0     0     0     0     0     0     0     0     0     0     0
  54      0     0     0     0     0     0     0     0     0     0     0     0     0     0     0     0     0     0     0     0
          0     0     0     0     0     0     0     0     0     0     0     0     0     0     0     0     0     0     0     0
          0     0     0     0     0     0     0     0     0     0     0     0     0     0     0     0     0     0     0     0
          0     0     0     0     0     0     0     0     0     0     0     0     0     0     0     0
  55      0     0     0     0     0     0     0     0     0     0     0     0     0     0     0     0     0     0     0     0
          0     0     0     0     0     0     0     0     0     0     0     0     0     0     0     0     0     0     0     0
          0     0     0     0     0     0     0     0     0     0     0     0     0     0     0     0     0     0     0     0
          0     0     0     0     0     0     0     0     0     0     0     0     0     0     0     0
  56      0     0     0     0     0     0     0     0     0     0     0     0     0     0     0     0     0     0     0     0
          0     0     0     0     0     0     0     0     0     0     0     0     0     0     0     0     0     0     0     0
          0     0     0     0     0     0     0     0     0     0     0     0     0     0     0     0     0     0     0     0
          0     0     0     0     0     0     0     0     0     0     0     0     0     0     0     0
  57      0     0     0     0     0     0     0     0     0     0     0     0     0     0     0     0     0     0     0     0
          0     0     0     0     0     0     0     0     0     0     0     0     0     0     0     0     0     0     0     0
          0     0     0     0     0     0     0     0     0     0     0     0     0     0     0     0     0     0     0     0
          0     0     0     0     0     0     0     0     0     0     0     0     0     0     0     0
  58      0     0     0     0     0     0     0     0     0     0     0     0     0     0     0     0     0     0     0     0
          0     0     0     0     0     0     0     0     0     0     0     0     0     0     0     0     0     0     0     0
          0     0     0     0     0     0     0     0     0     0     0     0     0     0     0     0     0     0     0     0
          0     0     0     0     0     0     0     0     0     0     0     0     0     0     0     0
  59      0     0     0     0     0     0     0     0     0     0     0     0     0     0     0     0     0     0     0     0
          0     0     0     0     0     0     0     0     0     0     0     0     0     0     0     0     0     0     0     0
          0     0     0     0     0     0     0     0     0     0     0     0     0     0     0     0     0     0     0     0
          0     0     0     0     0     0     0     0     0     0     0     0     0     0     0     0
  60      0     0     0     0     0     0     0     0     0     0     0     0     0     0     0     0     0     0     0     0
          0     0     0     0     0     0     0     0     0     0     0     0     0     0     0     0     0     0     0     0
          0     0     0     0     0     0     0     0     0     0     0     0     0     0     0     0     0     0     0     0
          0     0     0     0     0     0     0     0     0     0     0     0     0     0     0     0
  61      0     0     0     0     0     0     0     0     0     0     0     0     0     0     0     0     0     0     0     0
          0     0     0     0     0     0     0     0     0     0     0     0     0     0     0     0     0     0     0     0
          0     0     0     0     0     0     0     0     0     0     0     0     0     0     0     0     0     0     0     0
          0     0     0     0     0     0     0     0     0     0     0     0     0     0     0     0
  62      0     0     0     0     0     0     0     0     0     0     0     0     0     0     0     0     0     0     0     0
          0     0     0     0     0     0     0     0     0     0     0     0     0     0     0     0     0     0     0     0
          0     0     0     0     0     0     0     0     0     0     0     0     0     0     0     0     0     0     0     0
          0     0     0     0     0     0     0     0     0     0     0     0     0     0     0     0
  63      0     0     0     0     0     0     0     0     0     0     0     0     0     0     0     0     0     0     0     0
          0     0     0     0     0     0     0     0     0     0     0     0     0     0     0     0     0     0     0     0
          0     0     0     0     0     0     0     0     0     0     0     0     0     0     0     0     0     0     0     0
          0     0     0     0     0     0     0     0     0     0     0     0     0     0     0     0
  64      0     0     0     0     0     0     0     0     0     0     0     0     0     0     0     0     0     0     0     0
          0     0     0     0     0     0     0     0     0     0     0     0     0     0     0     0     0     0     0     0
          0     0     0     0     0     0     0     0     0     0     0     0     0     0     0     0     0     0     0     0
          0     0     0     0     0     0     0     0     0     0     0     0     0     0     0     0
  65      0     0     0     0     0     0     0     0     0     0     0     0     0     0     0     0     0     0     0     0
          0     0     0     0     0     0     0     0     0     0     0     0     0     0     0     0     0     0     0     0
          0     0     0     0     0     0     0     0     0     0     0     0     0     0     0     0     0     0     0     0
          0     0     0     0     0     0     0     0     0     0     0     0     0     0     0     0
  66      0     0     0     0     0     0     0     0     0     0     0     0     0     0     0     0     0     0     0     0
          0     0     0     0     0     0     0     0     0     0     0     0     0     0     0     0     0     0     0     0
          0     0     0     0     0     0     0     0     0     0     0     0     0     0     0     0     0     0     0     0
          0     0     0     0     0     0     0     0     0     0     0     0     0     0     0     0
  67      0     0     0     0     0     0     0     0     0     0     0     0     0     0     0     0     0     0     0     0
          0     0     0     0     0     0     0     0     0     0     0     0     0     0     0     0     0     0     0     0
          0     0     0     0     0     0     0     0     0     0     0     0     0     0     0     0     0     0     0     0
          0     0     0     0     0     0     0     0     0     0     0     0     0     0     0     0
  68      0     0     0     0     0     0     0     0     0     0     0     0     0     0     0     0     0     0     0     0
          0     0     0     0     0     0     0     0     0     0     0     0     0     0     0     0     0     0     0     0
          0     0     0     0     0     0     0     0     0     0     0     0     0     0     0     0     0     0     0     0
          0     0     0     0     0     0     0     0     0     0     0     0     0     0     0     0
  69      0     0     0     0     0     0     0     0     0     0     0     0     0     0     0     0     0     0     0     0
          0     0     0     0     0     0     0     0     0     0     0     0     0     0     0     0     0     0     0     0
          0     0     0     0     0     0     0     0     0     0     0     0     0     0     0     0     0     0     0     0
          0     0     0     0     0     0     0     0     0     0     0     0     0     0     0     0
  70      0     0     0     0     0     0     0     0     0     0     0     0     0     0     0     0     0     0     0     0
          0     0     0     0     0     0     0     0     0     0     0     0     0     0     0     0     0     0     0     0
          0     0     0     0     0     0     0     0     0     0     0     0     0     0     0     0     0     0     0     0
          0     0     0     0     0     0     0     0     0     0     0     0     0     0     0     0
  71      0     0     0     0     0     0     0     0     0     0     0     0     0     0     0     0     0     0     0     0
          0     0     0     0     0     0     0     0     0     0     0     0     0     0     0     0     0     0     0     0
          0     0     0     0     0     0     0     0     0     0     0     0     0     0     0     0     0     0     0     0
          0     0     0     0     0     0     0     0     0     0     0     0     0     0     0     0
  72      1     1     1     1     1     1     1     1     1     1     1     1     1     1     1     1     1     1     0     1
          1     1     1     1     1     1     1     1     1     1     1     1     1     1     1     1     1     1     1     1
          1     1     1     1     1     1     1     1     1     1     1     1     1     1     1     1     1     1     1     1
          1     1     1     1     1     1     1     1     1     1     1     1     1     1     1     1
  73      1     1     1     1     1     1     1     1     1     1     1     1     1     1     1     1     1     1     0     1
          1     1     1     1     1     1     1     1     1     1     1     1     1     1     1     1     1     1     1     1
          1     1     1     1     1     1     1     1     1     1     1     1     1     1     1     1     1     1     1     1
          1     1     1     1     1     1     1     1     1     1     1     1     1     1     1     1
  74      1     1     1     1     1     1     1     1     1     1     1     1     1     1     1     1     1     0     0     1
          1     1     1     1     1     1     1     1     1     1     1     1     1     1     1     1     1     1     1     1
          1     1     1     1     1     1     1     1     1     1     1     1     1     1     1     1     1     1     1     1
          1     1     1     1     1     1     1     1     1     1     1     1     1     1     1     1
  75      1     1     1     1     1     1     1     1     1     1     1     1     1     1     1     1     1     0     1     1
          1     1     1     1     1     1     1     1     1     1     1     1     1     1     1     1     1     1     1     1
          1     1     1     1     1     1     1     1     1     1     1     1     1     1     1     1     1     1     1     1
          1     1     1     1     1     1     1     1     1     1     1     1     1     1     1     1
  76      1     1     1     1     1     1     1     1     1     1     1     1     1     1     1     1     1     0     1     1
          1     1     1     1     1     1     1     1     1     1     1     1     1     1     1     1     1     1     1     1
          1     1     1     1     1     1     1     1     1     1     1     1     1     1     1     1     1     1     1     1
          1     1     1     1     1     1     1     1     1     1     1     1     1     1     1     1
  77      1     1     1     1     1     1     1     1     1     1     1     1     1     1     1     1     0     0     1     1
          1     1     1     1     1     1     1     1     1     1     1     1     1     1     1     1     1     1     1     1
          1     1     1     1     1     1     1     1     1     1     1     1     1     1     1     1     1     1     1     1
          1     1     1     1     1     1     1     1     1     1     1     1     1     1     1     1
  78      1     1     1     1     1     1     1     1     1     1     1     1     1     1     1     1     0     0     1     1
          1     1     1     1     1     1     1     1     1     1     1     1     1     1     1     1     1     1     1     1
          1     1     1     1     1     1     1     1     1     1     1     1     1     1     1     1     1     1     1     1
          1     1     1     1     1     1     1     1     1     1     1     1     1     1     1     1
  79      1     1     1     1     1     1     1     1     1     1     1     1     1     1     1     1     0     0     1     1
          1     1     1     1     1     1     1     1     1     1     1     1     1     1     1     1     1     1     1     1
          1     1     1     1     1     1     1     1     1     1     1     1     1     1     1     1     1     1     1     1
          1     1     1     1     1     1     1     1     1     1     1     1     1     1     1     1
  80      1     1     1     1     1     1     1     1     1     1     1     1     1     1     1     1     0     1     1     1
          1     1     1     1     1     1     1     1     1     1     1     1     1     1     1     1     1     1     1     1
          1     1     1     1     1     1     1     1     1     1     1     1     1     1     1     1     1     1     1     1
          1     1     1     1     1     1     1     1     1     1     1     1     1     1     1     1
  81      1     1     1     1     1     1     1     1     1     1     1     1     1     1     1     0     0     1     1     1
          1     1     1     1     1     1     1     1     1     1     1     1     1     1     1     1     1     1     1     1
          1     1     1     1     1     1     1     1     1     1     1     1     1     1     1     1     1     1     1     1
          1     1     1     1     1     1     1     1     1     1     1     1     1     1     1     1
  82      1     1     1     1     1     1     1     1     1     1     1     1     1     1     1     0     0     1     1     1
          1     1     1     1     1     1     1     1     1     1     1     1     1     1     1     1     1     1     1     1
          1     1     1     1     1     1     1     1     1     1     1     1     1     1     1     1     1     1     1     1
          1     1     1     1     1     1     1     1     1     1     1     1     1     1     1     1
  83      1     1     1     1     1     1     1     1     1     1     1     1     1     1     1     0     1     1     1     1
          1     1     1     1     1     1     1     1     1     1     1     1     1     1     1     1     1     1     1     1
          1     1     1     1     1     1     1     1     1     1     1     1     1     1     1     1     1     1     1     1
          1     1     1     1     1     1     1     1     1     1     1     1     1     1     1     1
  84      1     1     1     1     1     1     1     1     1     1     1     1     1     1     0     0     1     1     1     1
          1     1     1     1     1     1     1     1     1     1     1     1     1     1     1     1     1     1     1     1
          1     1     1     1     1     1     1     1     1     1     1     1     1     1     1     1     1     1     1     1
          1     1     1     1     1     1     1     1     1     1     1     1     1     1     1     1
  85      1     1     1     1     1     1     1     1     1     1     1     1     1     1     0     0     1     1     1     1
          1     1     1     1     1     1     1     1     1     1     1     1     1     1     1     1     1     1     1     1
          1     1     1     1     1     1     1     1     1     1     1     1     1     1     1     1     1     1     1     1
          1     1     1     1     1     1     1     1     1     1     1     1     1     1     1     1
  86      1     1     1     1     1     1     1     1     1     1     1     1     1     1     0     1     1     1     1     1
          1     1     1     1     1     1     1     1     1     1     1     1     1     1     1     1     1     1     1     1
          1     1     1     1     1     1     1     1     1     1     1     1     1     1     1     1     1     1     1     1
          1     1     1     1     1     1     1     1     1     1     1     1     1     1     1     1
  87      1     1     1     1     1     1     1     1     1     1     1     1     1     0     0     1     1     1     1     1
          1     1     1     1     1     1     1     1     1     1     1     1     1     1     1     1     1     1     1     1
          1     1     1     1     1     1     1     1     1     1     1     1     1     1     1     1     1     1     1     1
          1     1     1     1     1     1     1     1     1     1     1     1     1     1     1     1
  88      1     1     1     1     1     1     1     1     1     1     1     1     1     0     0     1     1     1     1     1
          1     1     1     1     1     1     1     1     1     1     1     1     1     1     1     1     1     1     1     1
          1     1     1     1     1     1     1     1     1     1     1     1     1     1     1     1     1     1     1     1
          1     1     1     1     1     1     1     1     1     1     1     1     1     1     1     1
  89      1     1     1     1     1     1     1     1     1     1     1     1     1     0     1     1     1     1     1     1
          1     1     1     1     1     1     1     1     1     1     1     1     1     1     1     1     1     1     1     1
          1     1     1     1     1     1     1     1     1     1     1     1     1     1     1     1     1     1     1     1
          1     1     1     1     1     1     1     1     1     1     1     1     1     1     1     1
  90      1     1     1     1     1     1     1     1     1     1     1     1     0     0     1     1     1     1     1     1
          1     1     1     1     1     1     1     1     1     1     1     1     1     1     1     1     1     1     1     1
          1     1     1     1     1     1     1     1     1     1     1     1     1     1     1     1     1     1     1     1
          1     1     1     1     1     1     1     1     1     1     1     1     1     1     1     1
  91      1     1     1     1     1     1     1     1     1     1     1     1     0     0     1     1     1     1     1     1
          1     1     1     1     1     1     1     1     1     1     1     1     1     1     1     1     1     1     1     1
          1     1     1     1     1     1     1     1     1     1     1     1     1     1     1     1     1     1     1     1
          1     1     1     1     1     1     1     1     1     1     1     1     1     1     1     1
  92      1     1     1     1     1     1     1     1     1     1     1     1     0     1     1     1     1     1     1     1
          1     1     1     1     1     1     1     1     1     1     1     1     1     1     1     1     1     1     1     1
          1     1     1     1     1     1     1     1     1     1     1     1     1     1     1     1     1     1     1     1
          1     1     1     1     1     1     1     1     1     1     1     1     1     1     1     1
  93      1     1     1     1     1     1     1     1     1     1     1     1     0     1     1     1     1     1     1     1
          1     1     1     1     1     1     1     1     1     1     1     1     1     1     1     1     1     1     1     1
          1     1     1     1     1     1     1     1     1     1     1     1     1     1     1     1     1     1     1     1
          1     1     1     1     1     1     1     1     1     1     1     1     1     1     1     1
  94      1     1     1     1     1     1     1     1     1     1     1     0     0     1     1     1     1     1     1     1
          1     1     1     1     1     1     1     1     1     1     1     1     1     1     1     1     1     1     1     1
          1     1     1     1     1     1     1     1     1     1     1     1     1     1     1     1     1     1     1     1
          1     1     1     1     1     1     1     1     1     1     1     1     1     1     1     1
  95      1     1     1     1     1     1     1     1     1     1     1     0     1     1     1     1     1     1     1     1
          1     1     1     1     1     1     1     1     1     1     1     1     1     1     1     1     1     1     1     1
          1     1     1     1     1     1     1     1     1     1     1     1     1     1     1     1     1     1     1     1
          1     1     1     1     1     1     1     1     1     1     1     1     1     1     1     1
  96      1     1     1     1     1     1     1     1     1     1     1     0     1     1     1     1     1     1     1     1
          1     1     1     1     1     1     1     1     1     1     1     1     1     1     1     1     1     1     1     1
          1     1     1     1     1     1     1     1     1     1     1     1     1     1     1     1     1     1     1     1
          1     1     1     1     1     1     1     1     1     1     1     1     1     1     1     1
  97      1     1     1     1     1     1     1     1     1     1     0     0     1     1     1     1     1     1     1     1
          1     1     1     1     1     1     1     1     1     1     1     1     1     1     1     1     1     1     1     1
          1     1     1     1     1     1     1     1     1     1     1     1     1     1     1     1     1     1     1     1
          1     1     1     1     1     1     1     1     1     1     1     1     1     1     1     1
  98      1     1     1     1     1     1     1     1     1     1     0     1     1     1     1     1     1     1     1     1
          1     1     1     1     1     1     1     1     1     1     1     1     1     1     1     1     1     1     1     1
          1     1     1     1     1     1     1     1     1     1     1     1     1     1     1     1     1     1     1     1
          1     1     1     1     1     1     1     1     1     1     1     1     1     1     1     1
  99      1     1     1     1     1     1     1     1     1     1     0     1     1     1     1     1     1     1     1     1
          1     1     1     1     1     1     1     1     1     1     1     1     1     1     1     1     1     1     1     1
          1     1     1     1     1     1     1     1     1     1     1     1     1     1     1     1     1     1     1     1
          1     1     1     1     1     1     1     1     1     1     1     1     1     1     1     1
 100      1     1     1     1     1     1     1     1     1     0     0     1     1     1     1     1     1     1     1     1
          1     1     1     1     1     1     1     1     1     1     1     1     1     1     1     1     1     1     1     1
          1     1     1     1     1     1     1     1     1     1     1     1     1     1     1     1     1     1     1     1
          1     1     1     1     1     1     1     1     1     1     1     1     1     1     1     1
 101      1     1     1     1     1     1     1     1     1     0     1     1     1     1     1     1     1     1     1     1
          1     1     1     1     1     1     1     1     1     1     1     1     1     1     1     1     1     1     1     1
          1     1     1     1     1     1     1     1     1     1     1     1     1     1     1     1     1     1     1     1
          1     1     1     1     1     1     1     1     1     1     1     1     1     1     1     1
 102      1     1     1     1     1     1     1     1     1     0     1     1     1     1     1     1     1     1     1     1
          1     1     1     1     1     1     1     1     1     1     1     1     1     1     1     1     1     1     1     1
          1     1     1     1     1     1     1     1     1     1     1     1     1     1     1     1     1     1     1     1
          1     1     1     1     1     1     1     1     1     1     1     1     1     1     1     1
 103      1     1     1     1     1     1     1     1     0     0     1     1     1     1     1     1     1     1     1     1
          1     1     1     1     1     1     1     1     1     1     1     1     1     1     1     1     1     1     1     1
          1     1     1     1     1     1     1     1     1     1     1     1     1     1     1     1     1     1     1     1
          1     1     1     1     1     1     1     1     1     1     1     1     1     1     1     1
 104      1     1     1     1     1     1     1     1     0     0     1     1     1     1     1     1     1     1     1     1
          1     1     1     1     1     1     1     1     1     1     1     1     1     1     1     1     1     1     1     1
          1     1     1     1     1     0     0     0     0     0     0     1     1     1     1     1     1     1     1     1
          1     1     1     1     1     1     1     1     1     1     1     1     1     1     1     1
 105      1     1     1     1     1     1     1     1     0     1     1     1     1     1     1     1     1     1     1     1
          1     1     1     1     1     1     1     1     1     1     1     1     1     1     1     1     1     1     1     1
          1     1     0     0     0     0     0     0     0     0     0     0     0     0     0     0     0     0     1     1
          1     1     1     1     1     1     1     1     1     1     1     1     1     1     1     1
 106      1     1     1     1     1     1     1     1     0     1     1     1     1     1     1     1     1     1     1     1
          1     1     1     1     1     1     1     1     1     1     1     1     1     1     1     1     1     1     1     1
          1     1     0     0     0     0     0     0     0     0     0     0     0     0     0     0     0     0     0     0
          0     0     0     1     1     1     1     1     1     1     1     1     1     1     1     1
 107      1     1     1     1     1     1     1     0     0     1     1     1     1     1     1     1     1     1     1     1
          1     1     1     1     1     1     1     1     1     1     1     1     1     1     1     1     1     1     1     1
          1     0     0     0     0     0     0     0     0     0     0     0     0     0     0     0     0     0     0     0
          0     0     0     0     0     0     0     0     1     1     1     1     1     1     1     1
 108      1     1     1     1     1     1     1     0     1     1     1     1     1     1     1     1     1     1     1     1
          1     1     1     1     1     1     1     1     1     1     1     1     1     1     1     1     1     1     1     1
          1     0     0     0     0     0     0     0     0     0     0     0     0     0     0     0     0     0     0     0
          0     0     0     0     0     0     0     0     0     0     0     0     1     1     1     1
 109      1     1     1     1     1     1     1     0     1     1     1     1     1     1     1     1     1     1     1     1
          1     1     1     1     1     1     1     1     1     1     1     1     1     1     1     1     1     1     1     1
          0     0     0     0     0     0     0     0     0     0     0     0     0     0     0     0     0     0     0     0
          0     0     0     0     0     0     0     0     0     0     0     0     0     0     0     1
 110      1     1     1     1     1     1     0     0     1     1     1     1     1     1     1     1     1     1     1     1
          1     1     1     1     1     1     1     1     1     1     1     1     1     1     1     1     1     1     1     1
          0     0     0     0     0     0     0     0     0     0     0     0     0     0     0     0     0     0     0     0
          0     0     0     0     0     0     0     0     0     0     0     0     0     0     0     0
 111      1     1     1     1     1     1     0     1     1     1     1     1     1     1     1     1     1     1     1     1
          1     1     1     1     1     1     1     1     1     1     1     1     1     1     1     1     1     1     1     0
          0     0     0     0     0     0     0     0     0     0     0     0     0     0     0     0     0     0     0     0
          0     0     0     0     0     0     0     0     0     0     0     0     0     0     0     0
 112      1     1     1     1     1     1     0     1     1     1     1     1     1     1     1     1     1     1     1     1
          1     1     1     1     1     1     1     1     1     1     1     1     1     1     1     1     1     1     1     0
          0     0     0     0     0     0     0     0     0     0     0     0     0     0     0     0     0     0     0     0
          0     0     0     0     0     0     0     0     0     0     0     0     0     0     0     0
 113      1     1     1     1     1     0     0     1     1     1     1     1     1     1     1     1     1     1     1     1
          1     1     1     1     1     1     1     1     1     1     1     1     1     1     1     1     1     1     0     0
          0     0     0     0     0     0     0     0     0     0     0     0     0     0     0     0     0     0     0     0
          0     0     0     0     0     0     0     0     0     0     0     0     0     0     0     0
 114      1     1     1     1     1     0     1     1     1     1     1     1     1     1     1     1     1     1     1     1
          1     1     1     1     1     1     1     1     1     1     1     1     1     1     1     1     1     1     0     0
          0     0     0     0     0     0     0     0     0     0     0     0     0     0     0     0     0     0     0     0
          0     0     0     0     0     0     0     0     0     0     0     0     0     0     0     0
 115      1     1     1     1     1     0     1     1     1     1     1     1     1     1     1     1     1     1     1     1
          1     1     1     1     1     1     1     1     1     1     1     1     1     1     1     1     1     1     1     0
          0     0     0     0     0     0     0     0     0     0     0     0     0     0     0     0     0     0     0     0
          0     0     0     0     0     0     0     0     0     0     0     0     0     0     0     0
 116      1     1     1     1     0     0     1     1     1     1     1     1     1     1     1     1     1     1     1     1
          1     1     1     1     1     1     1     1     1     1     1     1     1     1     1     1     1     1     1     0
          0     0     0     0     0     0     0     0     0     0     0     0     0     0     0     0     0     0     0     0
          0     0     0     0     0     0     0     0     0     0     0     0     0     0     0     0
 117      1     1     1     1     0     1     1     1     1     1     1     1     1     1     1     1     1     1     1     1
          1     1     1     1     1     1     1     1     1     1     1     1     1     1     1     1     1     1     1     1
          0     0     0     0     0     0     0     0     0     0     0     0     0     0     0     0     0     0     0     0
          0     0     0     0     0     0     0     0     0     0     0     0     0     0     0     0
 118      1     1     1     1     0     1     1     1     1     1     1     1     1     1     1     1     1     1     1     1
          1     1     1     1     1     1     1     1     1     1     1     1     1     1     1     1     1     1     1     1
          0     0     0     0     0     0     0     0     0     0     0     0     0     0     0     0     0     0     0     0
          0     0     0     0     0     0     0     0     0     0     0     0     0     0     0     0
 119      1     1     1     1     0     1     1     1     1     1     1     1     1     1     1     1     1     1     1     1
          1     1     1     1     1     1     1     1     1     1     1     1     1     1     1     1     1     1     1     1
          1     0     0     0     0     0     0     0     0     0     0     0     0     0     0     0     0     0     0     0
          0     0     0     0     0     0     0     0     0     0     0     0     0     0     0     0
 120      1     1     1     0     1     1     1     1     1     1     1     1     1     1     1     1     1     1     1     1
          1     1     1     1     1     1     1     1     1     1     1     1     1     1     1     1     1     1     1     1
          1     0     0     0     0     0     0     0     0     0     0     0     0     0     0     0     0     0     0     0
          0     0     0     0     0     0     0     0     0     0     0     0     0     0     0     0
 121      1     1     1     0     1     1     1     1     1     1     1     1     1     1     1     1     1     1     1     1
          1     1     1     1     1     1     1     1     1     1     1     1     1     1     1     1     1     1     1     1
          1     1     0     0     0     0     0     0     0     0     0     0     0     0     0     0     0     0     0     0
          0     0     0     0     0     0     0     0     0     0     0     0     0     0     0     0
 122      1     1     1     0     1     1     1     1     1     1     1     1     1     1     1     1     1     1     1     1
          1     1     1     1     1     1     1     1     1     1     1     1     1     1     1     1     1     1     1     1
          1     1     1     0     0     0     0     0     0     0     0     0     0     0     0     0     0     0     0     0
          0     0     0     0     0     0     0     0     0     0     0     0     0     0     0     0
 123      1     1     0     1     1     1     1     1     1     1     1     1     1     1     1     1     1     1     1     1
          1     1     1     1     1     1     1     1     1     1     1     1     1     1     1     1     1     1     1     1
          1     1     1     0     0     0     0     0     0     0     0     0     0     0     0     0     0     0     0     0
          0     0     0     0     0     0     0     0     0     0     0     0     0     0     0     0
 124      1     1     0     1     1     1     1     1     1     1     1     1     1     1     1     1     1     1     1     1
          1     1     1     1     1     1     1     1     1     1     1     1     1     1     1     1     1     1     1     1
          1     1     1     1     0     0     0     0     0     0     0     0     0     0     0     0     0     0     0     0
          0     0     0     0     0     0     0     0     0     0     0     0     0     0     0     0
 125      1     1     1     1     1     1     1     1     1     1     1     1     1     1     1     1     1     1     1     1
          1     1     1     1     1     1     1     1     1     1     1     1     1     1     1     1     1     1     1     1
          1     1     1     1     1     0     0     0     0     0     0     0     0     0     0     0     0     0     0     0
          0     0     0     0     0     0     0     0     0     0     0     0     0     0     0     0
 126      1     1     1     1     1     1     1     1     1     1     1     1     1     1     1     1     1     1     1     1
          1     1     1     1     1     1     1     1     1     1     1     1     1     1     1     1     1     1     1     1
          1     1     1     1     1     0     0     0     0     0     0     0     0     0     0     0     0     0     0     0
          0     0     0     0     0     0     0     0     0     0     0     0     0     0     0     0
 127      1     1     1     1     1     1     1     1     1     1     1     1     1     1     1     1     1     1     1     1
          1     1     1     1     1     1     1     1     1     1     1     1     1     1     1     1     1     1     1     1
          1     1     1     1     1     1     0     0     0     0     0     0     0     0     0     0     0     0     0     0
          0     0     0     0     0     0     0     0     0     0     0     0     0     0     0     0
 128      1     1     1     1     1     1     1     1     1     1     1     1     1     1     1     1     1     1     1     1
          1     1     1     1     1     1     1     1     1     1     1     1     1     1     1     1     1     1     1     1
          1     1     1     1     1     1     1     0     0     0     0     0     0     0     0     0     0     0     0     0
          0     0     0     0     0     0     0     0     0     0     0     0     0     0     0     0
 129      1     1     1     1     1     1     1     1     1     1     1     1     1     1     1     1     1     1     1     1
          1     1     1     1     1     1     1     1     1     1     1     1     1     1     1     1     1     1     1     1
          1     1     1     1     1     1     1     1     0     0     0     0     0     0     0     0     0     0     0     0
          0     0     0     0     0     0     0     0     0     0     0     0     0     0     0     0
 130      1     1     1     1     1     1     1     1     1     1     1     1     1     1     1     1     1     1     1     1
          1     1     1     1     1     1     1     1     1     1     1     1     1     1     1     1     1     1     1     1
          1     1     1     1     1     1     1     1     1     0     0     0     0     0     0     0     0     0     0     0
          0     0     0     0     0     0     0     0     0     0     0     0     0     0     0     0
 131      1     1     1     1     1     1     1     1     1     1     1     0     0     0     0     0     0     1     1     1
          1     1     1     1     1     1     1     1     1     1     1     1     1     1     1     1     1     1     1     1
          0     0     0     0     0     1     1     1     1     0     0     0     0     0     0     0     0     0     0     0
          0     0     0     0     0     0     0     0     0     0     0     0     0     0     0     0

 PARAMETER VALUE INPUT FILE,  INPUT READ FROM UNIT 5052
 #pval template file from pyemu

 NUMBER OF PARAMETER VALUES TO BE READ FROM PARAMETER VALUE FILE:    4

 INFORMATION ON PARAMETERS LISTED IN PARAMETER FILE
               VALUE IN
    NAME     PARAMETER FILE
 ----------  --------------
 hk01         0.10000E-01
 hk02          5.0000    
 sy01         0.10000    
 sy02          1.0000    
 -----------------------------------------------------------------------------
 FOR THE PARAMETERS LISTED IN THE TABLE ABOVE, PARAMETER VALUES IN INDIVIDUAL
 PACKAGE INPUT FILES ARE REPLACED BY THE VALUES FROM THE PARAMETER INPUT FILE.
 # NWT: Newton Solver file created on 9/8/2020 by ModelMuse version 4.2.0.0.

 NWT1 -- Newton Solver, VERSION 1.0.6, 12/05/2012
         INPUT READ FROM UNIT***

 COMPLEX OPTION:
 DEFAULT SOLVER INPUT VALUES REFLECT STRONGLY NONLINEAR MODEL
 ***XMD linear solver will be used***
 
   CONVERGENCE CRITERION OF   0.100000E+01 FOR HEAD SOLUTION
   AND A TOLERANCE OF   0.500000E+03 FOR FLOW SOLUTION AND 
   A MAXIMUM OF  2000 OUTER ITERATIONS. 


   D-B-D REDUCTION FACTOR OF    0.850000E+00 AND 
   A D-B-D INCREASE FACTOR OF    0.100000E-04 AND 
   A D-B-D RELAXATION OF    0.000000E+00 AND 
   A MOMENTUM FACTOR OF    0.100000E+00 .


   BACKTRACKING IS ACTIVE 
   THE MAXIMUM NUMBER OF BACKTRACKS IS    50 AND 
   THE BACKTRACKING TOLERANCE IS    0.110000E+01 AND
   THE BACKTRACKING REDUCTION FACTOR IS    0.700000E+00

 XMD -- LINEAR SOLUTION BY XMD PACKAGE VERSION 1.30
     BY MOTOMU IBARAKI, OHIO STATE UNIVERSITY, COLOMBUS, OH
                 INPUT READ FROM UNIT***
 ACCELERATION METHOD                    (IACL) =         2
 NODE ORDERING FLAG                   (NORDER) =         1
 LEVEL OF FILL                         (LEVEL) =         5
 MAXIMUM NUMBER OF ORTHOGONALIZATIONS  (NORTH) =         7
 INDEX FOR USING REDUCED SYSTEM      (IREDSYS) =         1
 RESID. REDUCTION CONVERGE CRITERION  (RRCTOL) =  0.000000E+00
 INDEX FOR USING DROP TOLERANCE     (IDROPTOL) =         1
 DROP TOLERANCE VALUE                  (EPSRN) =  0.100000E-04
 CONVERGENCE CRITERIA OF           (HCLOSEXMD) =  0.100000E-04
 MAX. NUMBER OF LINEAR ITERATIONS  (MXITERXMD) =        50


 UPW1 -- UPSTREAM WEIGHTING FLOW PACKAGE, VERSION 1.0.6, 12/05/2012
         INPUT READ FROM UNIT***

 # UPW: Upstream Weighting package file created on 1/26/2022 by ModelMuse version 4.3.0.0.
 CELL-BY-CELL FLOWS WILL BE SAVED ON UNIT    9
     4 Named Parameters     

   LAYER FLAGS:
 LAYER       LAYTYP          LAYAVG    CHANI           LAYVKA           LAYWET
 ---------------------------------------------------------------------------
    1             1             0    -1.000E+00             0             0

   INTERPRETATION OF LAYER FLAGS:
                        INTERBLOCK     HORIZONTAL    DATA IN
         LAYER TYPE   TRANSMISSIVITY   ANISOTROPY   ARRAY VKA   WETTABILITY
 LAYER   (LAYTYP)        (LAYAVG)      (CHANI)     (LAYVKA)       (LAYWET)
 ---------------------------------------------------------------------------
    1   CONVERTIBLE      HARMONIC      VARIABLE    VERTICAL K  NON-WETTABLE

 PARAMETERS DEFINED IN THE NWT PACKAGE

 PARAMETER NAME:hk01         TYPE:HK     CLUSTERS:   1
 Parameter value from package file is:   1.00000E-03
 This value has been changed to:         1.00000E-02, as read from
 the Parameter Value file
                LAYER:   1    MULTIPLIER ARRAY: NONE    ZONE ARRAY: hk01_Z1
                ZONE VALUES:    1

 PARAMETER NAME:hk02         TYPE:HK     CLUSTERS:   1
 Parameter value from package file is:    26.100    
 This value has been changed to:          5.0000    , as read from
 the Parameter Value file
                LAYER:   1    MULTIPLIER ARRAY: NONE    ZONE ARRAY: hk02_Z1
                ZONE VALUES:    1

 PARAMETER NAME:sy01         TYPE:SY     CLUSTERS:   1
 Parameter value from package file is:   0.10000    
                LAYER:   1    MULTIPLIER ARRAY: NONE    ZONE ARRAY: sy01_Z1
                ZONE VALUES:    1

 PARAMETER NAME:sy02         TYPE:SY     CLUSTERS:   1
 Parameter value from package file is:   0.10000    
 This value has been changed to:          1.0000    , as read from
 the Parameter Value file
                LAYER:   1    MULTIPLIER ARRAY: NONE    ZONE ARRAY: sy02_Z1
                ZONE VALUES:    1

    HYD. COND. ALONG ROWS FOR LAYER   1 WILL BE DEFINED BY PARAMETERS
 (PRINT FLAG=  12)

    HYD. COND. ALONG ROWS is defined by the following parameters:
 hk01      
 hk02      


              HYD. COND. ALONG ROWS FOR LAYER   1

            1           2           3           4           5           6           7           8           9          10
           11          12          13          14          15          16          17          18          19          20
           21          22          23          24          25          26          27          28          29          30
           31          32          33          34          35          36          37          38          39          40
           41          42          43          44          45          46          47          48          49          50
           51          52          53          54          55          56          57          58          59          60
           61          62          63          64          65          66          67          68          69          70
           71          72          73          74          75          76
 ........................................................................................................................
   1    0.000       0.000       0.000       0.000       0.000       0.000       0.000       0.000       0.000       0.000    
        0.000       0.000       0.000       0.000       0.000       0.000       0.000       0.000       0.000       0.000    
        0.000       0.000       0.000       0.000       0.000       0.000       0.000       0.000       0.000       0.000    
        0.000       0.000       0.000       0.000       0.000       0.000       0.000       0.000       0.000       0.000    
        0.000       0.000       0.000       0.000       0.000       0.000       0.000       0.000       0.000       0.000    
        0.000      1.0000E-02  1.0000E-02   0.000       0.000       0.000       0.000       0.000       0.000       0.000    
        0.000       0.000       0.000       0.000       0.000       0.000       0.000       0.000       0.000       0.000    
        0.000      1.0000E-02  1.0000E-02  1.0000E-02   0.000      1.0000E-02
   2    0.000       0.000       0.000       0.000       0.000       0.000       0.000       0.000       0.000       0.000    
        0.000       0.000       0.000       0.000       0.000       0.000       0.000       0.000       0.000       0.000    
        0.000       0.000       0.000       0.000       0.000       0.000       0.000       0.000       0.000       0.000    
        0.000       0.000       0.000       0.000       0.000       0.000       0.000       0.000       0.000       0.000    
        0.000       0.000       0.000       0.000       0.000       0.000       0.000       0.000       0.000       0.000    
        0.000      1.0000E-02  1.0000E-02  1.0000E-02   0.000       0.000       0.000       0.000       0.000       0.000    
        0.000       0.000       0.000       0.000       0.000       0.000       0.000      1.0000E-02  1.0000E-02  1.0000E-02
       1.0000E-02  1.0000E-02  1.0000E-02  1.0000E-02  1.0000E-02  1.0000E-02
   3    0.000       0.000       0.000       0.000       0.000       0.000       0.000       0.000       0.000       0.000    
        0.000       0.000       0.000       0.000       0.000       0.000       0.000       0.000       0.000       0.000    
        0.000       0.000       0.000       0.000       0.000       0.000       0.000       0.000       0.000       0.000    
        0.000       0.000       0.000       0.000       0.000       0.000       0.000       0.000       0.000       0.000    
        0.000       0.000       0.000       0.000       0.000       0.000       0.000       0.000       0.000       0.000    
        0.000      1.0000E-02  1.0000E-02  1.0000E-02   0.000       0.000       0.000       0.000       0.000       0.000    
        0.000       0.000      1.0000E-02  1.0000E-02  1.0000E-02  1.0000E-02  1.0000E-02  1.0000E-02  1.0000E-02  1.0000E-02
       1.0000E-02  1.0000E-02  1.0000E-02  1.0000E-02  1.0000E-02  1.0000E-02
   4    0.000       0.000       0.000       0.000       0.000       0.000       0.000       0.000       0.000       0.000    
        0.000       0.000       0.000       0.000       0.000       0.000       0.000       0.000       0.000       0.000    
        0.000       0.000       0.000       0.000       0.000       0.000       0.000       0.000       0.000       0.000    
        0.000       0.000       0.000       0.000       0.000       0.000       0.000       0.000       0.000       0.000    
        0.000       0.000       0.000       0.000       0.000       0.000       0.000       0.000       0.000       0.000    
       1.0000E-02  1.0000E-02  1.0000E-02  1.0000E-02  1.0000E-02   0.000       0.000      1.0000E-02  1.0000E-02  1.0000E-02
       1.0000E-02  1.0000E-02  1.0000E-02  1.0000E-02  1.0000E-02  1.0000E-02  1.0000E-02  1.0000E-02  1.0000E-02  1.0000E-02
       1.0000E-02  1.0000E-02  1.0000E-02  1.0000E-02  1.0000E-02  1.0000E-02
   5    0.000       0.000       0.000       0.000       0.000       0.000       0.000       0.000       0.000       0.000    
        0.000       0.000       0.000       0.000       0.000       0.000       0.000       0.000       0.000       0.000    
        0.000       0.000       0.000       0.000       0.000       0.000       0.000       0.000       0.000       0.000    
        0.000       0.000       0.000       0.000       0.000       0.000       0.000       0.000       0.000       0.000    
        0.000       0.000       0.000       0.000       0.000       0.000       0.000       0.000       0.000       0.000    
       1.0000E-02  1.0000E-02  1.0000E-02  1.0000E-02  1.0000E-02  1.0000E-02  1.0000E-02  1.0000E-02  1.0000E-02  1.0000E-02
       1.0000E-02  1.0000E-02  1.0000E-02  1.0000E-02  1.0000E-02  1.0000E-02  1.0000E-02  1.0000E-02  1.0000E-02  1.0000E-02
       1.0000E-02  1.0000E-02  1.0000E-02  1.0000E-02  1.0000E-02   0.000    
   6    0.000       0.000       0.000       0.000       0.000       0.000       0.000       0.000       0.000       0.000    
        0.000       0.000       0.000       0.000       0.000       0.000       0.000       0.000       0.000       0.000    
        0.000       0.000       0.000       0.000       0.000       0.000       0.000       0.000       0.000       0.000    
        0.000       0.000       0.000       0.000       0.000       0.000       0.000       0.000       0.000       0.000    
        0.000       0.000       0.000       0.000       0.000       0.000       0.000       0.000       0.000      1.0000E-02
       1.0000E-02  1.0000E-02  1.0000E-02  1.0000E-02  1.0000E-02  1.0000E-02  1.0000E-02  1.0000E-02  1.0000E-02  1.0000E-02
       1.0000E-02  1.0000E-02  1.0000E-02  1.0000E-02  1.0000E-02  1.0000E-02  1.0000E-02  1.0000E-02  1.0000E-02  1.0000E-02
       1.0000E-02  1.0000E-02  1.0000E-02  1.0000E-02  1.0000E-02   0.000    
   7    0.000       0.000       0.000       0.000       0.000       0.000       0.000       0.000       0.000       0.000    
        0.000       0.000       0.000       0.000       0.000       0.000       0.000       0.000       0.000       0.000    
        0.000       0.000       0.000       0.000       0.000       0.000       0.000       0.000       0.000       0.000    
        0.000       0.000       0.000       0.000       0.000       0.000       0.000       0.000       0.000       0.000    
        0.000       0.000       0.000       0.000       0.000       0.000       0.000       0.000       0.000      1.0000E-02
       1.0000E-02  1.0000E-02  1.0000E-02  1.0000E-02  1.0000E-02  1.0000E-02  1.0000E-02  1.0000E-02  1.0000E-02  1.0000E-02
       1.0000E-02  1.0000E-02  1.0000E-02  1.0000E-02  1.0000E-02  1.0000E-02  1.0000E-02  1.0000E-02  1.0000E-02  1.0000E-02
       1.0000E-02  1.0000E-02  1.0000E-02  1.0000E-02  1.0000E-02   0.000    
   8    0.000       0.000       0.000       0.000       0.000       0.000       0.000       0.000       0.000       0.000    
        0.000       0.000       0.000       0.000       0.000       0.000       0.000       0.000       0.000       0.000    
        0.000       0.000       0.000       0.000       0.000       0.000       0.000       0.000       0.000       0.000    
        0.000       0.000       0.000       0.000       0.000       0.000       0.000       0.000       0.000       0.000    
        0.000       0.000       0.000       0.000       0.000       0.000       0.000       0.000      1.0000E-02  1.0000E-02
       1.0000E-02  1.0000E-02  1.0000E-02  1.0000E-02  1.0000E-02  1.0000E-02  1.0000E-02  1.0000E-02  1.0000E-02  1.0000E-02
       1.0000E-02  1.0000E-02  1.0000E-02  1.0000E-02  1.0000E-02  1.0000E-02  1.0000E-02  1.0000E-02  1.0000E-02  1.0000E-02
       1.0000E-02  1.0000E-02  1.0000E-02  1.0000E-02  1.0000E-02  1.0000E-02
   9    0.000       0.000       0.000       0.000       0.000       0.000       0.000       0.000       0.000       0.000    
        0.000       0.000       0.000       0.000       0.000       0.000       0.000       0.000       0.000       0.000    
        0.000       0.000       0.000       0.000       0.000       0.000       0.000       0.000       0.000       0.000    
        0.000       0.000       0.000       0.000       0.000       0.000       0.000       0.000       0.000       0.000    
        0.000       0.000       0.000       0.000       0.000       0.000       0.000      1.0000E-02  1.0000E-02  1.0000E-02
       1.0000E-02  1.0000E-02  1.0000E-02  1.0000E-02  1.0000E-02  1.0000E-02  1.0000E-02  1.0000E-02  1.0000E-02  1.0000E-02
       1.0000E-02  1.0000E-02  1.0000E-02  1.0000E-02  1.0000E-02  1.0000E-02  1.0000E-02  1.0000E-02  1.0000E-02  1.0000E-02
       1.0000E-02  1.0000E-02  1.0000E-02  1.0000E-02  1.0000E-02  1.0000E-02
  10    0.000       0.000       0.000       0.000       0.000       0.000       0.000       0.000       0.000       0.000    
        0.000       0.000       0.000       0.000       0.000       0.000       0.000       0.000       0.000       0.000    
        0.000       0.000       0.000       0.000       0.000       0.000       0.000       0.000       0.000       0.000    
        0.000       0.000       0.000       0.000       0.000       0.000       0.000       0.000       0.000       0.000    
        0.000       0.000       0.000       0.000       0.000       0.000      1.0000E-02  1.0000E-02  1.0000E-02  1.0000E-02
       1.0000E-02  1.0000E-02  1.0000E-02  1.0000E-02  1.0000E-02  1.0000E-02  1.0000E-02  1.0000E-02  1.0000E-02  1.0000E-02
       1.0000E-02  1.0000E-02  1.0000E-02  1.0000E-02  1.0000E-02  1.0000E-02  1.0000E-02  1.0000E-02  1.0000E-02  1.0000E-02
       1.0000E-02  1.0000E-02  1.0000E-02  1.0000E-02  1.0000E-02  1.0000E-02
  11    0.000       0.000       0.000       0.000       0.000       0.000       0.000       0.000       0.000       0.000    
        0.000       0.000       0.000       0.000       0.000       0.000       0.000       0.000       0.000       0.000    
        0.000       0.000       0.000       0.000       0.000       0.000       0.000       0.000       0.000       0.000    
        0.000       0.000       0.000       0.000       0.000       0.000       0.000       0.000       0.000       0.000    
        0.000       0.000       0.000       0.000       0.000      1.0000E-02  1.0000E-02  1.0000E-02  1.0000E-02  1.0000E-02
       1.0000E-02  1.0000E-02  1.0000E-02  1.0000E-02  1.0000E-02  1.0000E-02  1.0000E-02  1.0000E-02  1.0000E-02  1.0000E-02
       1.0000E-02  1.0000E-02  1.0000E-02  1.0000E-02  1.0000E-02  1.0000E-02  1.0000E-02  1.0000E-02  1.0000E-02  1.0000E-02
       1.0000E-02  1.0000E-02  1.0000E-02  1.0000E-02  1.0000E-02   0.000    
  12    0.000       0.000       0.000       0.000       0.000       0.000       0.000       0.000       0.000       0.000    
        0.000       0.000       0.000       0.000       0.000       0.000       0.000       0.000       0.000       0.000    
        0.000       0.000       0.000       0.000       0.000       0.000       0.000       0.000       0.000       0.000    
        0.000       0.000       0.000       0.000       0.000       0.000       0.000       0.000       0.000       0.000    
        0.000       0.000       0.000       0.000      1.0000E-02  1.0000E-02  1.0000E-02  1.0000E-02  1.0000E-02  1.0000E-02
       1.0000E-02  1.0000E-02  1.0000E-02  1.0000E-02  1.0000E-02  1.0000E-02  1.0000E-02  1.0000E-02  1.0000E-02  1.0000E-02
       1.0000E-02  1.0000E-02  1.0000E-02  1.0000E-02  1.0000E-02  1.0000E-02  1.0000E-02  1.0000E-02  1.0000E-02  1.0000E-02
       1.0000E-02  1.0000E-02  1.0000E-02  1.0000E-02  1.0000E-02   0.000    
  13    0.000       0.000       0.000       0.000       0.000       0.000       0.000       0.000       0.000       0.000    
        0.000       0.000       0.000       0.000       0.000       0.000       0.000       0.000       0.000       0.000    
        0.000       0.000       0.000       0.000       0.000       0.000       0.000       0.000       0.000       0.000    
        0.000       0.000       0.000       0.000       0.000       0.000       0.000       0.000       0.000       0.000    
        0.000       0.000       0.000      1.0000E-02  1.0000E-02  1.0000E-02  1.0000E-02  1.0000E-02  1.0000E-02  1.0000E-02
       1.0000E-02  1.0000E-02  1.0000E-02  1.0000E-02  1.0000E-02  1.0000E-02  1.0000E-02  1.0000E-02  1.0000E-02  1.0000E-02
       1.0000E-02  1.0000E-02  1.0000E-02  1.0000E-02  1.0000E-02  1.0000E-02  1.0000E-02  1.0000E-02  1.0000E-02  1.0000E-02
       1.0000E-02  1.0000E-02  1.0000E-02  1.0000E-02  1.0000E-02   0.000    
  14    0.000       0.000       0.000       0.000       0.000       0.000       0.000       0.000       0.000       0.000    
        0.000       0.000       0.000       0.000       0.000       0.000       0.000       0.000       0.000       0.000    
        0.000       0.000       0.000       0.000       0.000       0.000       0.000       0.000       0.000       0.000    
        0.000       0.000       0.000       0.000       0.000       0.000       0.000       0.000       0.000       0.000    
        0.000       0.000      1.0000E-02  1.0000E-02  1.0000E-02  1.0000E-02  1.0000E-02  1.0000E-02  1.0000E-02  1.0000E-02
       1.0000E-02  1.0000E-02  1.0000E-02  1.0000E-02  1.0000E-02  1.0000E-02  1.0000E-02  1.0000E-02  1.0000E-02  1.0000E-02
       1.0000E-02  1.0000E-02  1.0000E-02  1.0000E-02  1.0000E-02  1.0000E-02  1.0000E-02  1.0000E-02  1.0000E-02  1.0000E-02
       1.0000E-02  1.0000E-02  1.0000E-02  1.0000E-02  1.0000E-02  1.0000E-02
  15    0.000       0.000       0.000       0.000       0.000       0.000       0.000       0.000       0.000       0.000    
        0.000       0.000       0.000       0.000       0.000       0.000       0.000       0.000       0.000       0.000    
        0.000       0.000       0.000       0.000       0.000       0.000       0.000       0.000       0.000       0.000    
        0.000       0.000       0.000       0.000       0.000       0.000       0.000       0.000       0.000       0.000    
        0.000      1.0000E-02  1.0000E-02  1.0000E-02  1.0000E-02  1.0000E-02  1.0000E-02  1.0000E-02  1.0000E-02  1.0000E-02
       1.0000E-02  1.0000E-02  1.0000E-02  1.0000E-02  1.0000E-02  1.0000E-02  1.0000E-02  1.0000E-02  1.0000E-02  1.0000E-02
       1.0000E-02  1.0000E-02  1.0000E-02  1.0000E-02  1.0000E-02  1.0000E-02  1.0000E-02  1.0000E-02  1.0000E-02  1.0000E-02
       1.0000E-02  1.0000E-02  1.0000E-02  1.0000E-02  1.0000E-02  1.0000E-02
  16    0.000       0.000       0.000       0.000       0.000       0.000       0.000       0.000       0.000       0.000    
        0.000       0.000       0.000       0.000       0.000       0.000       0.000       0.000       0.000       0.000    
        0.000       0.000       0.000       0.000       0.000       0.000       0.000       0.000       0.000       0.000    
        0.000       0.000       0.000       0.000       0.000       0.000       0.000       0.000       0.000       0.000    
       1.0000E-02  1.0000E-02  1.0000E-02  1.0000E-02  1.0000E-02  1.0000E-02  1.0000E-02  1.0000E-02  1.0000E-02  1.0000E-02
       1.0000E-02  1.0000E-02  1.0000E-02  1.0000E-02  1.0000E-02  1.0000E-02  1.0000E-02  1.0000E-02  1.0000E-02  1.0000E-02
       1.0000E-02  1.0000E-02  1.0000E-02  1.0000E-02  1.0000E-02  1.0000E-02  1.0000E-02  1.0000E-02  1.0000E-02  1.0000E-02
       1.0000E-02  1.0000E-02  1.0000E-02  1.0000E-02  1.0000E-02   0.000    
  17    0.000       0.000       0.000       0.000       0.000       0.000       0.000       0.000       0.000       0.000    
        0.000       0.000       0.000       0.000       0.000       0.000       0.000       0.000       0.000       0.000    
        0.000       0.000       0.000       0.000       0.000       0.000       0.000       0.000       0.000       0.000    
        0.000       0.000       0.000       0.000       0.000       0.000       0.000       0.000       0.000      1.0000E-02
       1.0000E-02  1.0000E-02  1.0000E-02  1.0000E-02  1.0000E-02  1.0000E-02  1.0000E-02  1.0000E-02  1.0000E-02  1.0000E-02
       1.0000E-02  1.0000E-02  1.0000E-02  1.0000E-02  1.0000E-02  1.0000E-02  1.0000E-02  1.0000E-02  1.0000E-02  1.0000E-02
       1.0000E-02  1.0000E-02  1.0000E-02  1.0000E-02  1.0000E-02  1.0000E-02  1.0000E-02  1.0000E-02  1.0000E-02  1.0000E-02
       1.0000E-02  1.0000E-02  1.0000E-02  1.0000E-02  1.0000E-02  1.0000E-02
  18    0.000       0.000       0.000       0.000       0.000       0.000       0.000       0.000       0.000       0.000    
        0.000       0.000       0.000       0.000       0.000       0.000       0.000       0.000       0.000       0.000    
        0.000       0.000       0.000       0.000       0.000       0.000       0.000       0.000       0.000       0.000    
        0.000       0.000       0.000       0.000       0.000       0.000       0.000       0.000      1.0000E-02  1.0000E-02
       1.0000E-02  1.0000E-02  1.0000E-02  1.0000E-02  1.0000E-02  1.0000E-02  1.0000E-02  1.0000E-02  1.0000E-02  1.0000E-02
       1.0000E-02  1.0000E-02  1.0000E-02  1.0000E-02  1.0000E-02  1.0000E-02  1.0000E-02  1.0000E-02  1.0000E-02  1.0000E-02
       1.0000E-02  1.0000E-02  1.0000E-02  1.0000E-02  1.0000E-02  1.0000E-02  1.0000E-02  1.0000E-02  1.0000E-02  1.0000E-02
       1.0000E-02  1.0000E-02  1.0000E-02  1.0000E-02  1.0000E-02  1.0000E-02
  19    0.000       0.000       0.000       0.000       0.000       0.000       0.000       0.000       0.000       0.000    
        0.000       0.000       0.000       0.000       0.000       0.000       0.000       0.000       0.000       0.000    
        0.000       0.000       0.000       0.000       0.000       0.000       0.000       0.000       0.000       0.000    
        0.000       0.000       0.000       0.000       0.000       0.000       0.000      1.0000E-02  1.0000E-02  1.0000E-02
       1.0000E-02  1.0000E-02  1.0000E-02  1.0000E-02  1.0000E-02  1.0000E-02  1.0000E-02  1.0000E-02  1.0000E-02  1.0000E-02
       1.0000E-02  1.0000E-02  1.0000E-02  1.0000E-02  1.0000E-02  1.0000E-02  1.0000E-02  1.0000E-02  1.0000E-02  1.0000E-02
       1.0000E-02  1.0000E-02  1.0000E-02  1.0000E-02  1.0000E-02  1.0000E-02  1.0000E-02  1.0000E-02  1.0000E-02  1.0000E-02
       1.0000E-02  1.0000E-02  1.0000E-02  1.0000E-02  1.0000E-02  1.0000E-02
  20    0.000       0.000       0.000       0.000       0.000       0.000       0.000       0.000       0.000       0.000    
        0.000       0.000       0.000       0.000       0.000       0.000       0.000       0.000       0.000       0.000    
        0.000       0.000       0.000       0.000       0.000       0.000       0.000       0.000       0.000       0.000    
        0.000       0.000       0.000       0.000       0.000       0.000      1.0000E-02  1.0000E-02  1.0000E-02  1.0000E-02
       1.0000E-02  1.0000E-02  1.0000E-02  1.0000E-02  1.0000E-02  1.0000E-02  1.0000E-02  1.0000E-02  1.0000E-02  1.0000E-02
       1.0000E-02  1.0000E-02  1.0000E-02  1.0000E-02  1.0000E-02  1.0000E-02  1.0000E-02  1.0000E-02  1.0000E-02  1.0000E-02
       1.0000E-02  1.0000E-02  1.0000E-02  1.0000E-02  1.0000E-02  1.0000E-02  1.0000E-02  1.0000E-02  1.0000E-02  1.0000E-02
       1.0000E-02  1.0000E-02  1.0000E-02  1.0000E-02  1.0000E-02  1.0000E-02
  21   1.0000E-02  1.0000E-02   0.000       0.000       0.000       0.000       0.000       0.000       0.000       0.000    
        0.000       0.000       0.000       0.000       0.000       0.000       0.000       0.000       0.000       0.000    
        0.000       0.000       0.000       0.000       0.000       0.000       0.000       0.000       0.000       0.000    
        0.000       0.000       0.000       0.000       0.000      1.0000E-02  1.0000E-02  1.0000E-02  1.0000E-02  1.0000E-02
       1.0000E-02  1.0000E-02  1.0000E-02  1.0000E-02  1.0000E-02  1.0000E-02  1.0000E-02  1.0000E-02  1.0000E-02  1.0000E-02
       1.0000E-02  1.0000E-02  1.0000E-02  1.0000E-02  1.0000E-02  1.0000E-02  1.0000E-02  1.0000E-02  1.0000E-02  1.0000E-02
       1.0000E-02  1.0000E-02  1.0000E-02  1.0000E-02  1.0000E-02  1.0000E-02  1.0000E-02  1.0000E-02  1.0000E-02  1.0000E-02
       1.0000E-02  1.0000E-02  1.0000E-02  1.0000E-02  1.0000E-02  1.0000E-02
  22   1.0000E-02  1.0000E-02  1.0000E-02  1.0000E-02  1.0000E-02   0.000       0.000       0.000       0.000       0.000    
        0.000       0.000       0.000       0.000       0.000       0.000       0.000       0.000       0.000       0.000    
        0.000       0.000       0.000       0.000       0.000       0.000       0.000       0.000       0.000       0.000    
        0.000       0.000      1.0000E-02  1.0000E-02  1.0000E-02  1.0000E-02  1.0000E-02  1.0000E-02  1.0000E-02  1.0000E-02
       1.0000E-02  1.0000E-02  1.0000E-02  1.0000E-02  1.0000E-02  1.0000E-02  1.0000E-02  1.0000E-02  1.0000E-02  1.0000E-02
       1.0000E-02  1.0000E-02  1.0000E-02  1.0000E-02  1.0000E-02  1.0000E-02  1.0000E-02  1.0000E-02  1.0000E-02  1.0000E-02
       1.0000E-02  1.0000E-02  1.0000E-02  1.0000E-02  1.0000E-02  1.0000E-02  1.0000E-02  1.0000E-02  1.0000E-02  1.0000E-02
       1.0000E-02  1.0000E-02  1.0000E-02  1.0000E-02  1.0000E-02  1.0000E-02
  23   1.0000E-02  1.0000E-02  1.0000E-02  1.0000E-02  1.0000E-02  1.0000E-02  1.0000E-02   0.000       0.000       0.000    
        0.000       0.000       0.000       0.000       0.000       0.000       0.000       0.000       0.000       0.000    
        0.000       0.000       0.000       0.000       0.000       0.000       0.000       0.000       0.000       0.000    
        0.000       0.000      1.0000E-02  1.0000E-02  1.0000E-02  1.0000E-02  1.0000E-02  1.0000E-02  1.0000E-02  1.0000E-02
       1.0000E-02  1.0000E-02  1.0000E-02  1.0000E-02  1.0000E-02  1.0000E-02  1.0000E-02  1.0000E-02  1.0000E-02  1.0000E-02
       1.0000E-02  1.0000E-02  1.0000E-02  1.0000E-02  1.0000E-02  1.0000E-02  1.0000E-02  1.0000E-02  1.0000E-02  1.0000E-02
       1.0000E-02  1.0000E-02  1.0000E-02  1.0000E-02  1.0000E-02  1.0000E-02  1.0000E-02  1.0000E-02  1.0000E-02  1.0000E-02
       1.0000E-02  1.0000E-02  1.0000E-02  1.0000E-02  1.0000E-02  1.0000E-02
  24   1.0000E-02  1.0000E-02  1.0000E-02  1.0000E-02  1.0000E-02  1.0000E-02  1.0000E-02  1.0000E-02  1.0000E-02  1.0000E-02
        0.000       0.000       0.000       0.000       0.000       0.000       0.000       0.000       0.000       0.000    
        0.000       0.000       0.000       0.000       0.000       0.000       0.000       0.000       0.000       0.000    
        0.000       0.000      1.0000E-02  1.0000E-02  1.0000E-02  1.0000E-02  1.0000E-02  1.0000E-02  1.0000E-02  1.0000E-02
       1.0000E-02  1.0000E-02  1.0000E-02  1.0000E-02  1.0000E-02  1.0000E-02  1.0000E-02  1.0000E-02  1.0000E-02  1.0000E-02
       1.0000E-02  1.0000E-02  1.0000E-02  1.0000E-02  1.0000E-02  1.0000E-02  1.0000E-02  1.0000E-02  1.0000E-02  1.0000E-02
       1.0000E-02  1.0000E-02  1.0000E-02  1.0000E-02  1.0000E-02  1.0000E-02  1.0000E-02  1.0000E-02  1.0000E-02  1.0000E-02
       1.0000E-02  1.0000E-02  1.0000E-02  1.0000E-02  1.0000E-02  1.0000E-02
  25   1.0000E-02  1.0000E-02  1.0000E-02  1.0000E-02  1.0000E-02  1.0000E-02  1.0000E-02  1.0000E-02  1.0000E-02  1.0000E-02
       1.0000E-02  1.0000E-02  1.0000E-02   0.000       0.000       0.000       0.000       0.000       0.000       0.000    
        0.000       0.000       0.000       0.000       0.000       0.000       0.000       0.000       0.000      1.0000E-02
       1.0000E-02  1.0000E-02  1.0000E-02  1.0000E-02  1.0000E-02  1.0000E-02  1.0000E-02  1.0000E-02  1.0000E-02  1.0000E-02
       1.0000E-02  1.0000E-02  1.0000E-02  1.0000E-02  1.0000E-02  1.0000E-02  1.0000E-02  1.0000E-02  1.0000E-02  1.0000E-02
       1.0000E-02  1.0000E-02  1.0000E-02  1.0000E-02  1.0000E-02  1.0000E-02  1.0000E-02  1.0000E-02  1.0000E-02  1.0000E-02
       1.0000E-02  1.0000E-02  1.0000E-02  1.0000E-02  1.0000E-02  1.0000E-02  1.0000E-02  1.0000E-02  1.0000E-02  1.0000E-02
       1.0000E-02  1.0000E-02  1.0000E-02  1.0000E-02  1.0000E-02  1.0000E-02
  26   1.0000E-02  1.0000E-02  1.0000E-02  1.0000E-02  1.0000E-02  1.0000E-02  1.0000E-02  1.0000E-02  1.0000E-02  1.0000E-02
       1.0000E-02  1.0000E-02  1.0000E-02  1.0000E-02  1.0000E-02  1.0000E-02  1.0000E-02   0.000       0.000       0.000    
        0.000       0.000       0.000       0.000       0.000       0.000      1.0000E-02  1.0000E-02  1.0000E-02  1.0000E-02
       1.0000E-02  1.0000E-02  1.0000E-02  1.0000E-02  1.0000E-02  1.0000E-02  1.0000E-02  1.0000E-02  1.0000E-02  1.0000E-02
       1.0000E-02  1.0000E-02  1.0000E-02  1.0000E-02  1.0000E-02  1.0000E-02  1.0000E-02  1.0000E-02  1.0000E-02  1.0000E-02
       1.0000E-02  1.0000E-02  1.0000E-02  1.0000E-02  1.0000E-02  1.0000E-02  1.0000E-02  1.0000E-02  1.0000E-02  1.0000E-02
       1.0000E-02  1.0000E-02  1.0000E-02  1.0000E-02  1.0000E-02  1.0000E-02  1.0000E-02  1.0000E-02  1.0000E-02  1.0000E-02
       1.0000E-02  1.0000E-02  1.0000E-02  1.0000E-02  1.0000E-02  1.0000E-02
  27   1.0000E-02  1.0000E-02  1.0000E-02  1.0000E-02  1.0000E-02  1.0000E-02  1.0000E-02  1.0000E-02  1.0000E-02  1.0000E-02
       1.0000E-02  1.0000E-02  1.0000E-02  1.0000E-02  1.0000E-02  1.0000E-02  1.0000E-02  1.0000E-02  1.0000E-02  1.0000E-02
       1.0000E-02  1.0000E-02  1.0000E-02  1.0000E-02  1.0000E-02  1.0000E-02  1.0000E-02  1.0000E-02  1.0000E-02  1.0000E-02
       1.0000E-02  1.0000E-02  1.0000E-02  1.0000E-02  1.0000E-02  1.0000E-02  1.0000E-02  1.0000E-02  1.0000E-02  1.0000E-02
       1.0000E-02  1.0000E-02  1.0000E-02  1.0000E-02  1.0000E-02  1.0000E-02  1.0000E-02  1.0000E-02  1.0000E-02  1.0000E-02
       1.0000E-02  1.0000E-02  1.0000E-02  1.0000E-02  1.0000E-02  1.0000E-02  1.0000E-02  1.0000E-02  1.0000E-02  1.0000E-02
       1.0000E-02  1.0000E-02  1.0000E-02  1.0000E-02  1.0000E-02  1.0000E-02  1.0000E-02  1.0000E-02  1.0000E-02  1.0000E-02
       1.0000E-02  1.0000E-02  1.0000E-02  1.0000E-02  1.0000E-02   0.000    
  28   1.0000E-02  1.0000E-02  1.0000E-02  1.0000E-02  1.0000E-02  1.0000E-02  1.0000E-02  1.0000E-02  1.0000E-02  1.0000E-02
       1.0000E-02  1.0000E-02  1.0000E-02  1.0000E-02  1.0000E-02  1.0000E-02  1.0000E-02  1.0000E-02  1.0000E-02  1.0000E-02
       1.0000E-02  1.0000E-02  1.0000E-02  1.0000E-02  1.0000E-02  1.0000E-02  1.0000E-02  1.0000E-02  1.0000E-02  1.0000E-02
       1.0000E-02  1.0000E-02  1.0000E-02  1.0000E-02  1.0000E-02  1.0000E-02  1.0000E-02  1.0000E-02  1.0000E-02  1.0000E-02
       1.0000E-02  1.0000E-02  1.0000E-02  1.0000E-02  1.0000E-02  1.0000E-02  1.0000E-02  1.0000E-02  1.0000E-02  1.0000E-02
       1.0000E-02  1.0000E-02  1.0000E-02  1.0000E-02  1.0000E-02  1.0000E-02  1.0000E-02  1.0000E-02  1.0000E-02  1.0000E-02
       1.0000E-02  1.0000E-02  1.0000E-02  1.0000E-02  1.0000E-02  1.0000E-02  1.0000E-02  1.0000E-02  1.0000E-02  1.0000E-02
       1.0000E-02  1.0000E-02  1.0000E-02  1.0000E-02  1.0000E-02   0.000    
  29   1.0000E-02  1.0000E-02  1.0000E-02  1.0000E-02  1.0000E-02  1.0000E-02  1.0000E-02  1.0000E-02  1.0000E-02  1.0000E-02
       1.0000E-02  1.0000E-02  1.0000E-02  1.0000E-02  1.0000E-02  1.0000E-02  1.0000E-02  1.0000E-02  1.0000E-02  1.0000E-02
       1.0000E-02  1.0000E-02  1.0000E-02  1.0000E-02  1.0000E-02  1.0000E-02  1.0000E-02  1.0000E-02  1.0000E-02  1.0000E-02
       1.0000E-02  1.0000E-02  1.0000E-02  1.0000E-02  1.0000E-02  1.0000E-02  1.0000E-02  1.0000E-02  1.0000E-02  1.0000E-02
       1.0000E-02  1.0000E-02  1.0000E-02  1.0000E-02  1.0000E-02  1.0000E-02  1.0000E-02  1.0000E-02  1.0000E-02  1.0000E-02
       1.0000E-02  1.0000E-02  1.0000E-02  1.0000E-02  1.0000E-02  1.0000E-02  1.0000E-02  1.0000E-02  1.0000E-02  1.0000E-02
       1.0000E-02  1.0000E-02  1.0000E-02  1.0000E-02  1.0000E-02  1.0000E-02  1.0000E-02  1.0000E-02  1.0000E-02  1.0000E-02
       1.0000E-02  1.0000E-02  1.0000E-02  1.0000E-02  1.0000E-02   0.000    
  30   1.0000E-02  1.0000E-02  1.0000E-02  1.0000E-02  1.0000E-02  1.0000E-02  1.0000E-02  1.0000E-02  1.0000E-02  1.0000E-02
       1.0000E-02  1.0000E-02  1.0000E-02  1.0000E-02  1.0000E-02  1.0000E-02  1.0000E-02  1.0000E-02  1.0000E-02  1.0000E-02
       1.0000E-02  1.0000E-02  1.0000E-02  1.0000E-02  1.0000E-02  1.0000E-02  1.0000E-02  1.0000E-02  1.0000E-02  1.0000E-02
       1.0000E-02  1.0000E-02  1.0000E-02  1.0000E-02  1.0000E-02  1.0000E-02  1.0000E-02  1.0000E-02  1.0000E-02  1.0000E-02
       1.0000E-02  1.0000E-02  1.0000E-02  1.0000E-02  1.0000E-02  1.0000E-02  1.0000E-02  1.0000E-02  1.0000E-02  1.0000E-02
       1.0000E-02  1.0000E-02  1.0000E-02  1.0000E-02  1.0000E-02  1.0000E-02  1.0000E-02  1.0000E-02  1.0000E-02  1.0000E-02
       1.0000E-02  1.0000E-02  1.0000E-02  1.0000E-02  1.0000E-02  1.0000E-02  1.0000E-02  1.0000E-02  1.0000E-02  1.0000E-02
       1.0000E-02  1.0000E-02  1.0000E-02  1.0000E-02  1.0000E-02   0.000    
  31   1.0000E-02  1.0000E-02  1.0000E-02  1.0000E-02  1.0000E-02  1.0000E-02  1.0000E-02  1.0000E-02  1.0000E-02  1.0000E-02
       1.0000E-02  1.0000E-02  1.0000E-02  1.0000E-02  1.0000E-02  1.0000E-02  1.0000E-02  1.0000E-02  1.0000E-02  1.0000E-02
       1.0000E-02  1.0000E-02  1.0000E-02  1.0000E-02  1.0000E-02  1.0000E-02  1.0000E-02  1.0000E-02  1.0000E-02  1.0000E-02
       1.0000E-02  1.0000E-02  1.0000E-02  1.0000E-02  1.0000E-02  1.0000E-02  1.0000E-02  1.0000E-02  1.0000E-02  1.0000E-02
       1.0000E-02  1.0000E-02  1.0000E-02  1.0000E-02  1.0000E-02  1.0000E-02  1.0000E-02  1.0000E-02  1.0000E-02  1.0000E-02
       1.0000E-02  1.0000E-02  1.0000E-02  1.0000E-02  1.0000E-02  1.0000E-02  1.0000E-02  1.0000E-02  1.0000E-02  1.0000E-02
       1.0000E-02  1.0000E-02  1.0000E-02  1.0000E-02  1.0000E-02  1.0000E-02  1.0000E-02  1.0000E-02  1.0000E-02  1.0000E-02
       1.0000E-02  1.0000E-02  1.0000E-02  1.0000E-02   0.000       0.000    
  32    0.000      1.0000E-02  1.0000E-02  1.0000E-02  1.0000E-02  1.0000E-02  1.0000E-02  1.0000E-02  1.0000E-02  1.0000E-02
       1.0000E-02  1.0000E-02  1.0000E-02  1.0000E-02  1.0000E-02  1.0000E-02  1.0000E-02  1.0000E-02  1.0000E-02  1.0000E-02
       1.0000E-02  1.0000E-02  1.0000E-02  1.0000E-02  1.0000E-02  1.0000E-02  1.0000E-02  1.0000E-02  1.0000E-02  1.0000E-02
       1.0000E-02  1.0000E-02  1.0000E-02  1.0000E-02  1.0000E-02  1.0000E-02  1.0000E-02  1.0000E-02  1.0000E-02  1.0000E-02
       1.0000E-02  1.0000E-02  1.0000E-02  1.0000E-02  1.0000E-02  1.0000E-02  1.0000E-02  1.0000E-02  1.0000E-02  1.0000E-02
       1.0000E-02  1.0000E-02  1.0000E-02  1.0000E-02  1.0000E-02  1.0000E-02  1.0000E-02  1.0000E-02  1.0000E-02  1.0000E-02
       1.0000E-02  1.0000E-02  1.0000E-02  1.0000E-02  1.0000E-02  1.0000E-02  1.0000E-02  1.0000E-02  1.0000E-02  1.0000E-02
       1.0000E-02  1.0000E-02  1.0000E-02  1.0000E-02   0.000       0.000    
  33    0.000       0.000       0.000      1.0000E-02  1.0000E-02  1.0000E-02  1.0000E-02  1.0000E-02  1.0000E-02  1.0000E-02
       1.0000E-02  1.0000E-02  1.0000E-02  1.0000E-02  1.0000E-02  1.0000E-02  1.0000E-02  1.0000E-02  1.0000E-02  1.0000E-02
       1.0000E-02  1.0000E-02  1.0000E-02  1.0000E-02  1.0000E-02  1.0000E-02  1.0000E-02  1.0000E-02  1.0000E-02  1.0000E-02
       1.0000E-02  1.0000E-02  1.0000E-02  1.0000E-02  1.0000E-02  1.0000E-02  1.0000E-02  1.0000E-02  1.0000E-02  1.0000E-02
       1.0000E-02  1.0000E-02  1.0000E-02  1.0000E-02  1.0000E-02  1.0000E-02  1.0000E-02  1.0000E-02  1.0000E-02  1.0000E-02
       1.0000E-02  1.0000E-02  1.0000E-02  1.0000E-02  1.0000E-02  1.0000E-02  1.0000E-02  1.0000E-02  1.0000E-02  1.0000E-02
       1.0000E-02  1.0000E-02  1.0000E-02  1.0000E-02  1.0000E-02  1.0000E-02  1.0000E-02  1.0000E-02  1.0000E-02  1.0000E-02
       1.0000E-02  1.0000E-02  1.0000E-02   0.000       0.000       0.000    
  34    0.000       0.000       0.000       0.000       0.000      1.0000E-02  1.0000E-02  1.0000E-02  1.0000E-02  1.0000E-02
       1.0000E-02  1.0000E-02  1.0000E-02  1.0000E-02  1.0000E-02  1.0000E-02  1.0000E-02  1.0000E-02  1.0000E-02  1.0000E-02
       1.0000E-02  1.0000E-02  1.0000E-02  1.0000E-02  1.0000E-02  1.0000E-02  1.0000E-02  1.0000E-02  1.0000E-02  1.0000E-02
       1.0000E-02  1.0000E-02  1.0000E-02  1.0000E-02  1.0000E-02  1.0000E-02  1.0000E-02  1.0000E-02  1.0000E-02  1.0000E-02
       1.0000E-02  1.0000E-02  1.0000E-02  1.0000E-02  1.0000E-02  1.0000E-02  1.0000E-02  1.0000E-02  1.0000E-02  1.0000E-02
       1.0000E-02  1.0000E-02  1.0000E-02  1.0000E-02  1.0000E-02  1.0000E-02  1.0000E-02  1.0000E-02  1.0000E-02  1.0000E-02
       1.0000E-02  1.0000E-02  1.0000E-02  1.0000E-02  1.0000E-02  1.0000E-02  1.0000E-02  1.0000E-02  1.0000E-02  1.0000E-02
       1.0000E-02  1.0000E-02  1.0000E-02   0.000       0.000       0.000    
  35    0.000       0.000       0.000       0.000       0.000       0.000      1.0000E-02  1.0000E-02  1.0000E-02  1.0000E-02
       1.0000E-02  1.0000E-02  1.0000E-02  1.0000E-02  1.0000E-02  1.0000E-02  1.0000E-02  1.0000E-02  1.0000E-02  1.0000E-02
       1.0000E-02  1.0000E-02  1.0000E-02  1.0000E-02  1.0000E-02  1.0000E-02  1.0000E-02  1.0000E-02  1.0000E-02  1.0000E-02
       1.0000E-02  1.0000E-02  1.0000E-02  1.0000E-02  1.0000E-02  1.0000E-02  1.0000E-02  1.0000E-02  1.0000E-02  1.0000E-02
       1.0000E-02  1.0000E-02  1.0000E-02  1.0000E-02  1.0000E-02  1.0000E-02  1.0000E-02  1.0000E-02  1.0000E-02  1.0000E-02
       1.0000E-02  1.0000E-02  1.0000E-02  1.0000E-02  1.0000E-02  1.0000E-02  1.0000E-02  1.0000E-02  1.0000E-02  1.0000E-02
       1.0000E-02  1.0000E-02  1.0000E-02  1.0000E-02  1.0000E-02  1.0000E-02  1.0000E-02  1.0000E-02  1.0000E-02  1.0000E-02
       1.0000E-02  1.0000E-02   0.000       0.000       0.000       0.000    
  36    0.000       0.000       0.000       0.000       0.000       0.000       0.000       0.000      1.0000E-02  1.0000E-02
       1.0000E-02  1.0000E-02  1.0000E-02  1.0000E-02  1.0000E-02  1.0000E-02  1.0000E-02  1.0000E-02  1.0000E-02  1.0000E-02
       1.0000E-02  1.0000E-02  1.0000E-02  1.0000E-02  1.0000E-02  1.0000E-02  1.0000E-02  1.0000E-02  1.0000E-02  1.0000E-02
       1.0000E-02  1.0000E-02  1.0000E-02  1.0000E-02  1.0000E-02  1.0000E-02  1.0000E-02  1.0000E-02  1.0000E-02  1.0000E-02
       1.0000E-02  1.0000E-02  1.0000E-02  1.0000E-02  1.0000E-02  1.0000E-02  1.0000E-02  1.0000E-02  1.0000E-02  1.0000E-02
       1.0000E-02  1.0000E-02  1.0000E-02  1.0000E-02  1.0000E-02  1.0000E-02  1.0000E-02  1.0000E-02  1.0000E-02  1.0000E-02
       1.0000E-02  1.0000E-02  1.0000E-02  1.0000E-02  1.0000E-02  1.0000E-02  1.0000E-02  1.0000E-02  1.0000E-02  1.0000E-02
       1.0000E-02  1.0000E-02   0.000       0.000       0.000       0.000    
  37   1.0000E-02  1.0000E-02  1.0000E-02   0.000       0.000       0.000       0.000       0.000       0.000       0.000    
       1.0000E-02  1.0000E-02  1.0000E-02  1.0000E-02  1.0000E-02  1.0000E-02  1.0000E-02  1.0000E-02  1.0000E-02  1.0000E-02
       1.0000E-02  1.0000E-02  1.0000E-02  1.0000E-02  1.0000E-02  1.0000E-02  1.0000E-02  1.0000E-02  1.0000E-02  1.0000E-02
       1.0000E-02  1.0000E-02  1.0000E-02  1.0000E-02  1.0000E-02  1.0000E-02  1.0000E-02  1.0000E-02  1.0000E-02  1.0000E-02
       1.0000E-02  1.0000E-02  1.0000E-02  1.0000E-02  1.0000E-02  1.0000E-02  1.0000E-02  1.0000E-02  1.0000E-02  1.0000E-02
       1.0000E-02  1.0000E-02  1.0000E-02  1.0000E-02  1.0000E-02  1.0000E-02  1.0000E-02  1.0000E-02  1.0000E-02  1.0000E-02
       1.0000E-02  1.0000E-02  1.0000E-02  1.0000E-02  1.0000E-02  1.0000E-02  1.0000E-02  1.0000E-02  1.0000E-02  1.0000E-02
       1.0000E-02  1.0000E-02   0.000       0.000       0.000       0.000    
  38   1.0000E-02  1.0000E-02  1.0000E-02  1.0000E-02  1.0000E-02  1.0000E-02  1.0000E-02   0.000       0.000       0.000    
        0.000      1.0000E-02  1.0000E-02  1.0000E-02  1.0000E-02  1.0000E-02  1.0000E-02  1.0000E-02  1.0000E-02  1.0000E-02
       1.0000E-02  1.0000E-02  1.0000E-02  1.0000E-02  1.0000E-02  1.0000E-02  1.0000E-02  1.0000E-02  1.0000E-02  1.0000E-02
       1.0000E-02  1.0000E-02  1.0000E-02  1.0000E-02  1.0000E-02  1.0000E-02  1.0000E-02  1.0000E-02  1.0000E-02  1.0000E-02
       1.0000E-02  1.0000E-02  1.0000E-02  1.0000E-02  1.0000E-02  1.0000E-02  1.0000E-02  1.0000E-02  1.0000E-02  1.0000E-02
       1.0000E-02  1.0000E-02  1.0000E-02  1.0000E-02  1.0000E-02  1.0000E-02  1.0000E-02  1.0000E-02  1.0000E-02  1.0000E-02
       1.0000E-02  1.0000E-02  1.0000E-02  1.0000E-02  1.0000E-02  1.0000E-02  1.0000E-02  1.0000E-02  1.0000E-02   0.000    
       1.0000E-02  1.0000E-02   0.000       0.000       0.000       0.000    
  39   1.0000E-02  1.0000E-02  1.0000E-02  1.0000E-02  1.0000E-02  1.0000E-02  1.0000E-02  1.0000E-02  1.0000E-02  1.0000E-02
       1.0000E-02   0.000       0.000      1.0000E-02  1.0000E-02  1.0000E-02  1.0000E-02  1.0000E-02  1.0000E-02  1.0000E-02
       1.0000E-02  1.0000E-02  1.0000E-02  1.0000E-02  1.0000E-02  1.0000E-02  1.0000E-02  1.0000E-02  1.0000E-02  1.0000E-02
       1.0000E-02  1.0000E-02  1.0000E-02  1.0000E-02  1.0000E-02  1.0000E-02  1.0000E-02  1.0000E-02  1.0000E-02  1.0000E-02
       1.0000E-02  1.0000E-02  1.0000E-02  1.0000E-02  1.0000E-02  1.0000E-02  1.0000E-02  1.0000E-02  1.0000E-02  1.0000E-02
       1.0000E-02  1.0000E-02  1.0000E-02  1.0000E-02  1.0000E-02  1.0000E-02  1.0000E-02  1.0000E-02  1.0000E-02  1.0000E-02
       1.0000E-02  1.0000E-02  1.0000E-02  1.0000E-02  1.0000E-02  1.0000E-02  1.0000E-02  1.0000E-02  1.0000E-02  1.0000E-02
       1.0000E-02   0.000       0.000       0.000       0.000       0.000    
  40   1.0000E-02  1.0000E-02  1.0000E-02  1.0000E-02  1.0000E-02  1.0000E-02  1.0000E-02  1.0000E-02  1.0000E-02  1.0000E-02
       1.0000E-02  1.0000E-02  1.0000E-02  1.0000E-02  1.0000E-02  1.0000E-02  1.0000E-02  1.0000E-02  1.0000E-02  1.0000E-02
       1.0000E-02  1.0000E-02  1.0000E-02  1.0000E-02  1.0000E-02  1.0000E-02  1.0000E-02  1.0000E-02  1.0000E-02  1.0000E-02
       1.0000E-02  1.0000E-02  1.0000E-02  1.0000E-02  1.0000E-02  1.0000E-02  1.0000E-02  1.0000E-02  1.0000E-02  1.0000E-02
       1.0000E-02  1.0000E-02  1.0000E-02  1.0000E-02  1.0000E-02  1.0000E-02  1.0000E-02  1.0000E-02  1.0000E-02  1.0000E-02
       1.0000E-02  1.0000E-02  1.0000E-02  1.0000E-02  1.0000E-02  1.0000E-02  1.0000E-02  1.0000E-02  1.0000E-02  1.0000E-02
       1.0000E-02  1.0000E-02  1.0000E-02  1.0000E-02  1.0000E-02  1.0000E-02  1.0000E-02  1.0000E-02  1.0000E-02  1.0000E-02
       1.0000E-02   0.000       0.000       0.000       0.000       0.000    
  41   1.0000E-02  1.0000E-02  1.0000E-02  1.0000E-02  1.0000E-02  1.0000E-02  1.0000E-02  1.0000E-02  1.0000E-02  1.0000E-02
       1.0000E-02  1.0000E-02  1.0000E-02  1.0000E-02  1.0000E-02  1.0000E-02  1.0000E-02  1.0000E-02  1.0000E-02  1.0000E-02
       1.0000E-02  1.0000E-02  1.0000E-02  1.0000E-02  1.0000E-02  1.0000E-02  1.0000E-02  1.0000E-02  1.0000E-02  1.0000E-02
       1.0000E-02  1.0000E-02  1.0000E-02  1.0000E-02  1.0000E-02  1.0000E-02  1.0000E-02  1.0000E-02  1.0000E-02  1.0000E-02
       1.0000E-02  1.0000E-02  1.0000E-02  1.0000E-02  1.0000E-02  1.0000E-02  1.0000E-02  1.0000E-02  1.0000E-02  1.0000E-02
       1.0000E-02  1.0000E-02  1.0000E-02  1.0000E-02  1.0000E-02  1.0000E-02  1.0000E-02  1.0000E-02  1.0000E-02  1.0000E-02
       1.0000E-02  1.0000E-02  1.0000E-02  1.0000E-02  1.0000E-02  1.0000E-02  1.0000E-02  1.0000E-02  1.0000E-02  1.0000E-02
       1.0000E-02  1.0000E-02   0.000       0.000       0.000       0.000    
  42   1.0000E-02  1.0000E-02  1.0000E-02  1.0000E-02  1.0000E-02  1.0000E-02  1.0000E-02  1.0000E-02  1.0000E-02  1.0000E-02
       1.0000E-02  1.0000E-02  1.0000E-02  1.0000E-02  1.0000E-02  1.0000E-02  1.0000E-02  1.0000E-02  1.0000E-02  1.0000E-02
       1.0000E-02  1.0000E-02  1.0000E-02  1.0000E-02  1.0000E-02  1.0000E-02  1.0000E-02  1.0000E-02  1.0000E-02  1.0000E-02
       1.0000E-02  1.0000E-02  1.0000E-02  1.0000E-02  1.0000E-02  1.0000E-02  1.0000E-02  1.0000E-02  1.0000E-02  1.0000E-02
       1.0000E-02  1.0000E-02  1.0000E-02  1.0000E-02  1.0000E-02  1.0000E-02  1.0000E-02  1.0000E-02  1.0000E-02  1.0000E-02
       1.0000E-02  1.0000E-02  1.0000E-02  1.0000E-02  1.0000E-02  1.0000E-02  1.0000E-02  1.0000E-02  1.0000E-02  1.0000E-02
       1.0000E-02  1.0000E-02  1.0000E-02  1.0000E-02  1.0000E-02  1.0000E-02  1.0000E-02  1.0000E-02  1.0000E-02  1.0000E-02
       1.0000E-02  1.0000E-02   0.000       0.000       0.000       0.000    
  43   1.0000E-02  1.0000E-02  1.0000E-02  1.0000E-02  1.0000E-02  1.0000E-02  1.0000E-02  1.0000E-02  1.0000E-02  1.0000E-02
       1.0000E-02  1.0000E-02  1.0000E-02  1.0000E-02  1.0000E-02  1.0000E-02  1.0000E-02  1.0000E-02  1.0000E-02  1.0000E-02
       1.0000E-02  1.0000E-02  1.0000E-02  1.0000E-02  1.0000E-02  1.0000E-02  1.0000E-02  1.0000E-02  1.0000E-02  1.0000E-02
       1.0000E-02  1.0000E-02  1.0000E-02  1.0000E-02  1.0000E-02  1.0000E-02  1.0000E-02  1.0000E-02  1.0000E-02  1.0000E-02
       1.0000E-02  1.0000E-02  1.0000E-02  1.0000E-02  1.0000E-02  1.0000E-02  1.0000E-02  1.0000E-02  1.0000E-02  1.0000E-02
       1.0000E-02  1.0000E-02  1.0000E-02  1.0000E-02  1.0000E-02  1.0000E-02  1.0000E-02  1.0000E-02  1.0000E-02  1.0000E-02
       1.0000E-02  1.0000E-02  1.0000E-02  1.0000E-02  1.0000E-02  1.0000E-02  1.0000E-02  1.0000E-02  1.0000E-02  1.0000E-02
       1.0000E-02  1.0000E-02  1.0000E-02   0.000       0.000       0.000    
  44   1.0000E-02  1.0000E-02  1.0000E-02  1.0000E-02  1.0000E-02  1.0000E-02  1.0000E-02  1.0000E-02  1.0000E-02  1.0000E-02
       1.0000E-02  1.0000E-02  1.0000E-02  1.0000E-02  1.0000E-02  1.0000E-02  1.0000E-02  1.0000E-02  1.0000E-02  1.0000E-02
       1.0000E-02  1.0000E-02  1.0000E-02  1.0000E-02  1.0000E-02  1.0000E-02  1.0000E-02  1.0000E-02  1.0000E-02  1.0000E-02
       1.0000E-02  1.0000E-02  1.0000E-02  1.0000E-02  1.0000E-02  1.0000E-02  1.0000E-02  1.0000E-02  1.0000E-02  1.0000E-02
       1.0000E-02  1.0000E-02  1.0000E-02  1.0000E-02  1.0000E-02  1.0000E-02  1.0000E-02  1.0000E-02  1.0000E-02  1.0000E-02
       1.0000E-02  1.0000E-02  1.0000E-02  1.0000E-02  1.0000E-02  1.0000E-02  1.0000E-02  1.0000E-02  1.0000E-02  1.0000E-02
       1.0000E-02  1.0000E-02  1.0000E-02  1.0000E-02  1.0000E-02  1.0000E-02  1.0000E-02  1.0000E-02  1.0000E-02  1.0000E-02
       1.0000E-02  1.0000E-02  1.0000E-02  1.0000E-02   0.000       0.000    
  45   1.0000E-02  1.0000E-02  1.0000E-02  1.0000E-02  1.0000E-02  1.0000E-02  1.0000E-02  1.0000E-02  1.0000E-02  1.0000E-02
       1.0000E-02  1.0000E-02  1.0000E-02  1.0000E-02  1.0000E-02  1.0000E-02  1.0000E-02  1.0000E-02  1.0000E-02  1.0000E-02
       1.0000E-02  1.0000E-02  1.0000E-02  1.0000E-02  1.0000E-02  1.0000E-02  1.0000E-02  1.0000E-02  1.0000E-02  1.0000E-02
       1.0000E-02  1.0000E-02  1.0000E-02  1.0000E-02  1.0000E-02  1.0000E-02  1.0000E-02  1.0000E-02  1.0000E-02  1.0000E-02
       1.0000E-02  1.0000E-02  1.0000E-02  1.0000E-02  1.0000E-02  1.0000E-02  1.0000E-02  1.0000E-02  1.0000E-02  1.0000E-02
       1.0000E-02  1.0000E-02  1.0000E-02  1.0000E-02  1.0000E-02  1.0000E-02  1.0000E-02  1.0000E-02  1.0000E-02  1.0000E-02
       1.0000E-02  1.0000E-02  1.0000E-02  1.0000E-02  1.0000E-02  1.0000E-02  1.0000E-02  1.0000E-02  1.0000E-02  1.0000E-02
       1.0000E-02  1.0000E-02  1.0000E-02  1.0000E-02  1.0000E-02   0.000    
  46   1.0000E-02  1.0000E-02  1.0000E-02  1.0000E-02  1.0000E-02  1.0000E-02  1.0000E-02  1.0000E-02  1.0000E-02  1.0000E-02
       1.0000E-02  1.0000E-02  1.0000E-02  1.0000E-02  1.0000E-02  1.0000E-02  1.0000E-02  1.0000E-02  1.0000E-02  1.0000E-02
       1.0000E-02  1.0000E-02  1.0000E-02  1.0000E-02  1.0000E-02  1.0000E-02  1.0000E-02  1.0000E-02  1.0000E-02  1.0000E-02
       1.0000E-02  1.0000E-02  1.0000E-02  1.0000E-02  1.0000E-02  1.0000E-02  1.0000E-02  1.0000E-02  1.0000E-02  1.0000E-02
       1.0000E-02  1.0000E-02  1.0000E-02  1.0000E-02  1.0000E-02  1.0000E-02  1.0000E-02  1.0000E-02  1.0000E-02  1.0000E-02
       1.0000E-02  1.0000E-02  1.0000E-02  1.0000E-02  1.0000E-02  1.0000E-02  1.0000E-02  1.0000E-02  1.0000E-02  1.0000E-02
       1.0000E-02  1.0000E-02  1.0000E-02  1.0000E-02  1.0000E-02  1.0000E-02  1.0000E-02  1.0000E-02  1.0000E-02  1.0000E-02
       1.0000E-02  1.0000E-02  1.0000E-02  1.0000E-02  1.0000E-02  1.0000E-02
  47   1.0000E-02  1.0000E-02  1.0000E-02  1.0000E-02  1.0000E-02  1.0000E-02  1.0000E-02  1.0000E-02  1.0000E-02  1.0000E-02
       1.0000E-02  1.0000E-02  1.0000E-02  1.0000E-02  1.0000E-02  1.0000E-02  1.0000E-02  1.0000E-02  1.0000E-02  1.0000E-02
       1.0000E-02  1.0000E-02  1.0000E-02  1.0000E-02  1.0000E-02  1.0000E-02  1.0000E-02  1.0000E-02  1.0000E-02  1.0000E-02
       1.0000E-02  1.0000E-02  1.0000E-02  1.0000E-02  1.0000E-02  1.0000E-02  1.0000E-02  1.0000E-02  1.0000E-02  1.0000E-02
       1.0000E-02  1.0000E-02  1.0000E-02  1.0000E-02  1.0000E-02  1.0000E-02  1.0000E-02  1.0000E-02  1.0000E-02  1.0000E-02
       1.0000E-02  1.0000E-02  1.0000E-02  1.0000E-02  1.0000E-02  1.0000E-02  1.0000E-02  1.0000E-02  1.0000E-02  1.0000E-02
       1.0000E-02  1.0000E-02  1.0000E-02  1.0000E-02  1.0000E-02  1.0000E-02  1.0000E-02  1.0000E-02  1.0000E-02  1.0000E-02
       1.0000E-02  1.0000E-02  1.0000E-02  1.0000E-02  1.0000E-02  1.0000E-02
  48   1.0000E-02  1.0000E-02  1.0000E-02  1.0000E-02  1.0000E-02  1.0000E-02  1.0000E-02  1.0000E-02  1.0000E-02  1.0000E-02
       1.0000E-02  1.0000E-02  1.0000E-02  1.0000E-02  1.0000E-02  1.0000E-02  1.0000E-02  1.0000E-02  1.0000E-02  1.0000E-02
       1.0000E-02  1.0000E-02  1.0000E-02  1.0000E-02  1.0000E-02  1.0000E-02  1.0000E-02  1.0000E-02  1.0000E-02  1.0000E-02
       1.0000E-02  1.0000E-02  1.0000E-02  1.0000E-02  1.0000E-02  1.0000E-02  1.0000E-02  1.0000E-02  1.0000E-02  1.0000E-02
       1.0000E-02  1.0000E-02  1.0000E-02  1.0000E-02  1.0000E-02  1.0000E-02  1.0000E-02  1.0000E-02  1.0000E-02  1.0000E-02
       1.0000E-02  1.0000E-02  1.0000E-02  1.0000E-02  1.0000E-02  1.0000E-02  1.0000E-02  1.0000E-02  1.0000E-02  1.0000E-02
       1.0000E-02  1.0000E-02  1.0000E-02  1.0000E-02  1.0000E-02  1.0000E-02  1.0000E-02  1.0000E-02  1.0000E-02  1.0000E-02
       1.0000E-02  1.0000E-02  1.0000E-02  1.0000E-02  1.0000E-02  1.0000E-02
  49   1.0000E-02  1.0000E-02  1.0000E-02  1.0000E-02  1.0000E-02  1.0000E-02  1.0000E-02  1.0000E-02  1.0000E-02  1.0000E-02
       1.0000E-02  1.0000E-02  1.0000E-02  1.0000E-02  1.0000E-02  1.0000E-02  1.0000E-02  1.0000E-02  1.0000E-02  1.0000E-02
       1.0000E-02  1.0000E-02  1.0000E-02  1.0000E-02  1.0000E-02  1.0000E-02  1.0000E-02  1.0000E-02  1.0000E-02  1.0000E-02
       1.0000E-02  1.0000E-02  1.0000E-02  1.0000E-02  1.0000E-02  1.0000E-02  1.0000E-02  1.0000E-02  1.0000E-02  1.0000E-02
       1.0000E-02  1.0000E-02  1.0000E-02  1.0000E-02  1.0000E-02  1.0000E-02  1.0000E-02  1.0000E-02  1.0000E-02  1.0000E-02
       1.0000E-02  1.0000E-02  1.0000E-02  1.0000E-02  1.0000E-02  1.0000E-02  1.0000E-02  1.0000E-02  1.0000E-02  1.0000E-02
       1.0000E-02  1.0000E-02  1.0000E-02  1.0000E-02  1.0000E-02  1.0000E-02  1.0000E-02  1.0000E-02  1.0000E-02  1.0000E-02
       1.0000E-02  1.0000E-02  1.0000E-02  1.0000E-02  1.0000E-02  1.0000E-02
  50   1.0000E-02  1.0000E-02  1.0000E-02  1.0000E-02  1.0000E-02  1.0000E-02  1.0000E-02  1.0000E-02  1.0000E-02  1.0000E-02
       1.0000E-02  1.0000E-02  1.0000E-02  1.0000E-02  1.0000E-02  1.0000E-02  1.0000E-02  1.0000E-02  1.0000E-02  1.0000E-02
       1.0000E-02  1.0000E-02  1.0000E-02  1.0000E-02  1.0000E-02  1.0000E-02  1.0000E-02  1.0000E-02  1.0000E-02  1.0000E-02
       1.0000E-02  1.0000E-02  1.0000E-02  1.0000E-02  1.0000E-02  1.0000E-02  1.0000E-02  1.0000E-02  1.0000E-02  1.0000E-02
       1.0000E-02  1.0000E-02  1.0000E-02  1.0000E-02  1.0000E-02  1.0000E-02  1.0000E-02  1.0000E-02  1.0000E-02  1.0000E-02
       1.0000E-02  1.0000E-02  1.0000E-02  1.0000E-02  1.0000E-02  1.0000E-02  1.0000E-02  1.0000E-02  1.0000E-02  1.0000E-02
       1.0000E-02  1.0000E-02  1.0000E-02  1.0000E-02  1.0000E-02  1.0000E-02  1.0000E-02  1.0000E-02  1.0000E-02  1.0000E-02
       1.0000E-02  1.0000E-02  1.0000E-02  1.0000E-02  1.0000E-02  1.0000E-02
  51   1.0000E-02  1.0000E-02  1.0000E-02  1.0000E-02  1.0000E-02  1.0000E-02  1.0000E-02  1.0000E-02  1.0000E-02  1.0000E-02
       1.0000E-02  1.0000E-02  1.0000E-02  1.0000E-02  1.0000E-02  1.0000E-02  1.0000E-02  1.0000E-02  1.0000E-02  1.0000E-02
       1.0000E-02  1.0000E-02  1.0000E-02  1.0000E-02  1.0000E-02  1.0000E-02  1.0000E-02  1.0000E-02  1.0000E-02  1.0000E-02
       1.0000E-02  1.0000E-02  1.0000E-02  1.0000E-02  1.0000E-02  1.0000E-02  1.0000E-02  1.0000E-02  1.0000E-02  1.0000E-02
       1.0000E-02  1.0000E-02  1.0000E-02  1.0000E-02  1.0000E-02  1.0000E-02  1.0000E-02  1.0000E-02  1.0000E-02  1.0000E-02
       1.0000E-02  1.0000E-02  1.0000E-02  1.0000E-02  1.0000E-02  1.0000E-02  1.0000E-02  1.0000E-02  1.0000E-02  1.0000E-02
       1.0000E-02  1.0000E-02  1.0000E-02  1.0000E-02  1.0000E-02  1.0000E-02  1.0000E-02  1.0000E-02  1.0000E-02  1.0000E-02
       1.0000E-02  1.0000E-02  1.0000E-02  1.0000E-02  1.0000E-02  1.0000E-02
  52   1.0000E-02  1.0000E-02  1.0000E-02  1.0000E-02  1.0000E-02  1.0000E-02  1.0000E-02  1.0000E-02  1.0000E-02  1.0000E-02
       1.0000E-02  1.0000E-02  1.0000E-02  1.0000E-02  1.0000E-02  1.0000E-02  1.0000E-02  1.0000E-02  1.0000E-02  1.0000E-02
       1.0000E-02  1.0000E-02  1.0000E-02  1.0000E-02  1.0000E-02  1.0000E-02  1.0000E-02  1.0000E-02  1.0000E-02  1.0000E-02
       1.0000E-02  1.0000E-02  1.0000E-02  1.0000E-02  1.0000E-02  1.0000E-02  1.0000E-02  1.0000E-02  1.0000E-02  1.0000E-02
       1.0000E-02  1.0000E-02  1.0000E-02  1.0000E-02  1.0000E-02  1.0000E-02  1.0000E-02  1.0000E-02  1.0000E-02  1.0000E-02
       1.0000E-02  1.0000E-02  1.0000E-02  1.0000E-02  1.0000E-02  1.0000E-02  1.0000E-02  1.0000E-02  1.0000E-02  1.0000E-02
       1.0000E-02  1.0000E-02  1.0000E-02  1.0000E-02  1.0000E-02  1.0000E-02  1.0000E-02  1.0000E-02  1.0000E-02  1.0000E-02
       1.0000E-02  1.0000E-02  1.0000E-02  1.0000E-02  1.0000E-02  1.0000E-02
  53   1.0000E-02  1.0000E-02  1.0000E-02  1.0000E-02  1.0000E-02  1.0000E-02  1.0000E-02  1.0000E-02  1.0000E-02  1.0000E-02
       1.0000E-02  1.0000E-02  1.0000E-02  1.0000E-02  1.0000E-02  1.0000E-02  1.0000E-02  1.0000E-02  1.0000E-02  1.0000E-02
       1.0000E-02  1.0000E-02  1.0000E-02  1.0000E-02  1.0000E-02  1.0000E-02  1.0000E-02  1.0000E-02  1.0000E-02  1.0000E-02
       1.0000E-02  1.0000E-02  1.0000E-02  1.0000E-02  1.0000E-02  1.0000E-02  1.0000E-02  1.0000E-02  1.0000E-02  1.0000E-02
       1.0000E-02  1.0000E-02  1.0000E-02  1.0000E-02  1.0000E-02  1.0000E-02  1.0000E-02  1.0000E-02  1.0000E-02  1.0000E-02
       1.0000E-02  1.0000E-02  1.0000E-02  1.0000E-02  1.0000E-02  1.0000E-02  1.0000E-02  1.0000E-02  1.0000E-02  1.0000E-02
       1.0000E-02  1.0000E-02  1.0000E-02  1.0000E-02  1.0000E-02  1.0000E-02  1.0000E-02  1.0000E-02  1.0000E-02  1.0000E-02
       1.0000E-02  1.0000E-02  1.0000E-02  1.0000E-02  1.0000E-02  1.0000E-02
  54   1.0000E-02  1.0000E-02  1.0000E-02  1.0000E-02  1.0000E-02  1.0000E-02  1.0000E-02  1.0000E-02  1.0000E-02  1.0000E-02
       1.0000E-02  1.0000E-02  1.0000E-02  1.0000E-02  1.0000E-02  1.0000E-02  1.0000E-02  1.0000E-02  1.0000E-02  1.0000E-02
       1.0000E-02  1.0000E-02  1.0000E-02  1.0000E-02  1.0000E-02  1.0000E-02  1.0000E-02  1.0000E-02  1.0000E-02  1.0000E-02
       1.0000E-02  1.0000E-02  1.0000E-02  1.0000E-02  1.0000E-02  1.0000E-02  1.0000E-02  1.0000E-02  1.0000E-02  1.0000E-02
       1.0000E-02  1.0000E-02  1.0000E-02  1.0000E-02  1.0000E-02  1.0000E-02  1.0000E-02  1.0000E-02  1.0000E-02  1.0000E-02
       1.0000E-02  1.0000E-02  1.0000E-02  1.0000E-02  1.0000E-02  1.0000E-02  1.0000E-02  1.0000E-02  1.0000E-02  1.0000E-02
       1.0000E-02  1.0000E-02  1.0000E-02  1.0000E-02  1.0000E-02  1.0000E-02  1.0000E-02  1.0000E-02  1.0000E-02  1.0000E-02
       1.0000E-02  1.0000E-02  1.0000E-02  1.0000E-02  1.0000E-02  1.0000E-02
  55   1.0000E-02  1.0000E-02  1.0000E-02  1.0000E-02  1.0000E-02  1.0000E-02  1.0000E-02  1.0000E-02  1.0000E-02  1.0000E-02
       1.0000E-02  1.0000E-02  1.0000E-02  1.0000E-02  1.0000E-02  1.0000E-02  1.0000E-02  1.0000E-02  1.0000E-02  1.0000E-02
       1.0000E-02  1.0000E-02  1.0000E-02  1.0000E-02  1.0000E-02  1.0000E-02  1.0000E-02  1.0000E-02  1.0000E-02  1.0000E-02
       1.0000E-02  1.0000E-02  1.0000E-02  1.0000E-02  1.0000E-02  1.0000E-02  1.0000E-02  1.0000E-02  1.0000E-02  1.0000E-02
       1.0000E-02  1.0000E-02  1.0000E-02  1.0000E-02  1.0000E-02  1.0000E-02  1.0000E-02  1.0000E-02  1.0000E-02  1.0000E-02
       1.0000E-02  1.0000E-02  1.0000E-02  1.0000E-02  1.0000E-02  1.0000E-02  1.0000E-02  1.0000E-02  1.0000E-02  1.0000E-02
       1.0000E-02  1.0000E-02  1.0000E-02  1.0000E-02  1.0000E-02  1.0000E-02  1.0000E-02  1.0000E-02  1.0000E-02  1.0000E-02
       1.0000E-02  1.0000E-02  1.0000E-02  1.0000E-02  1.0000E-02  1.0000E-02
  56   1.0000E-02  1.0000E-02  1.0000E-02  1.0000E-02  1.0000E-02  1.0000E-02  1.0000E-02  1.0000E-02  1.0000E-02  1.0000E-02
       1.0000E-02  1.0000E-02  1.0000E-02  1.0000E-02  1.0000E-02  1.0000E-02  1.0000E-02  1.0000E-02  1.0000E-02  1.0000E-02
       1.0000E-02  1.0000E-02  1.0000E-02  1.0000E-02  1.0000E-02  1.0000E-02  1.0000E-02  1.0000E-02  1.0000E-02  1.0000E-02
       1.0000E-02  1.0000E-02  1.0000E-02  1.0000E-02  1.0000E-02  1.0000E-02  1.0000E-02  1.0000E-02  1.0000E-02  1.0000E-02
       1.0000E-02  1.0000E-02  1.0000E-02  1.0000E-02  1.0000E-02  1.0000E-02  1.0000E-02  1.0000E-02  1.0000E-02  1.0000E-02
       1.0000E-02  1.0000E-02  1.0000E-02  1.0000E-02  1.0000E-02  1.0000E-02  1.0000E-02  1.0000E-02  1.0000E-02  1.0000E-02
       1.0000E-02  1.0000E-02  1.0000E-02  1.0000E-02  1.0000E-02  1.0000E-02  1.0000E-02  1.0000E-02  1.0000E-02  1.0000E-02
       1.0000E-02  1.0000E-02  1.0000E-02  1.0000E-02  1.0000E-02  1.0000E-02
  57   1.0000E-02  1.0000E-02  1.0000E-02  1.0000E-02  1.0000E-02  1.0000E-02  1.0000E-02  1.0000E-02  1.0000E-02  1.0000E-02
       1.0000E-02  1.0000E-02  1.0000E-02  1.0000E-02  1.0000E-02  1.0000E-02  1.0000E-02  1.0000E-02  1.0000E-02  1.0000E-02
       1.0000E-02  1.0000E-02  1.0000E-02  1.0000E-02  1.0000E-02  1.0000E-02  1.0000E-02  1.0000E-02  1.0000E-02  1.0000E-02
       1.0000E-02  1.0000E-02  1.0000E-02  1.0000E-02  1.0000E-02  1.0000E-02  1.0000E-02  1.0000E-02  1.0000E-02  1.0000E-02
       1.0000E-02  1.0000E-02  1.0000E-02  1.0000E-02  1.0000E-02  1.0000E-02  1.0000E-02  1.0000E-02  1.0000E-02  1.0000E-02
       1.0000E-02  1.0000E-02  1.0000E-02  1.0000E-02  1.0000E-02  1.0000E-02  1.0000E-02  1.0000E-02  1.0000E-02  1.0000E-02
       1.0000E-02  1.0000E-02  1.0000E-02  1.0000E-02  1.0000E-02  1.0000E-02  1.0000E-02  1.0000E-02  1.0000E-02  1.0000E-02
       1.0000E-02  1.0000E-02  1.0000E-02  1.0000E-02  1.0000E-02  1.0000E-02
  58   1.0000E-02  1.0000E-02  1.0000E-02  1.0000E-02  1.0000E-02  1.0000E-02  1.0000E-02  1.0000E-02  1.0000E-02  1.0000E-02
       1.0000E-02  1.0000E-02  1.0000E-02  1.0000E-02  1.0000E-02  1.0000E-02  1.0000E-02  1.0000E-02  1.0000E-02  1.0000E-02
       1.0000E-02  1.0000E-02   0.000      1.0000E-02  1.0000E-02  1.0000E-02  1.0000E-02  1.0000E-02  1.0000E-02  1.0000E-02
       1.0000E-02  1.0000E-02  1.0000E-02  1.0000E-02  1.0000E-02  1.0000E-02  1.0000E-02  1.0000E-02  1.0000E-02  1.0000E-02
       1.0000E-02  1.0000E-02  1.0000E-02  1.0000E-02  1.0000E-02  1.0000E-02  1.0000E-02  1.0000E-02  1.0000E-02  1.0000E-02
       1.0000E-02  1.0000E-02  1.0000E-02  1.0000E-02  1.0000E-02  1.0000E-02  1.0000E-02  1.0000E-02  1.0000E-02  1.0000E-02
       1.0000E-02  1.0000E-02  1.0000E-02  1.0000E-02  1.0000E-02  1.0000E-02  1.0000E-02  1.0000E-02  1.0000E-02  1.0000E-02
       1.0000E-02  1.0000E-02  1.0000E-02  1.0000E-02  1.0000E-02  1.0000E-02
  59   1.0000E-02  1.0000E-02  1.0000E-02  1.0000E-02  1.0000E-02  1.0000E-02  1.0000E-02  1.0000E-02  1.0000E-02  1.0000E-02
       1.0000E-02  1.0000E-02  1.0000E-02  1.0000E-02  1.0000E-02  1.0000E-02  1.0000E-02  1.0000E-02  1.0000E-02  1.0000E-02
       1.0000E-02  1.0000E-02  1.0000E-02  1.0000E-02  1.0000E-02  1.0000E-02  1.0000E-02  1.0000E-02  1.0000E-02  1.0000E-02
       1.0000E-02  1.0000E-02  1.0000E-02  1.0000E-02  1.0000E-02  1.0000E-02  1.0000E-02  1.0000E-02  1.0000E-02  1.0000E-02
       1.0000E-02  1.0000E-02  1.0000E-02  1.0000E-02  1.0000E-02  1.0000E-02  1.0000E-02  1.0000E-02  1.0000E-02  1.0000E-02
       1.0000E-02  1.0000E-02  1.0000E-02  1.0000E-02  1.0000E-02  1.0000E-02  1.0000E-02  1.0000E-02  1.0000E-02  1.0000E-02
       1.0000E-02  1.0000E-02  1.0000E-02  1.0000E-02  1.0000E-02  1.0000E-02  1.0000E-02  1.0000E-02  1.0000E-02  1.0000E-02
       1.0000E-02  1.0000E-02  1.0000E-02  1.0000E-02  1.0000E-02  1.0000E-02
  60   1.0000E-02  1.0000E-02  1.0000E-02  1.0000E-02  1.0000E-02  1.0000E-02  1.0000E-02  1.0000E-02  1.0000E-02  1.0000E-02
       1.0000E-02  1.0000E-02  1.0000E-02  1.0000E-02  1.0000E-02  1.0000E-02  1.0000E-02  1.0000E-02  1.0000E-02  1.0000E-02
       1.0000E-02  1.0000E-02  1.0000E-02  1.0000E-02  1.0000E-02  1.0000E-02  1.0000E-02  1.0000E-02  1.0000E-02  1.0000E-02
       1.0000E-02  1.0000E-02  1.0000E-02  1.0000E-02  1.0000E-02  1.0000E-02  1.0000E-02  1.0000E-02  1.0000E-02  1.0000E-02
       1.0000E-02  1.0000E-02  1.0000E-02  1.0000E-02  1.0000E-02  1.0000E-02  1.0000E-02  1.0000E-02  1.0000E-02  1.0000E-02
       1.0000E-02  1.0000E-02  1.0000E-02  1.0000E-02  1.0000E-02  1.0000E-02  1.0000E-02  1.0000E-02  1.0000E-02  1.0000E-02
       1.0000E-02  1.0000E-02  1.0000E-02  1.0000E-02  1.0000E-02  1.0000E-02  1.0000E-02  1.0000E-02  1.0000E-02  1.0000E-02
       1.0000E-02  1.0000E-02  1.0000E-02  1.0000E-02  1.0000E-02  1.0000E-02
  61   1.0000E-02  1.0000E-02  1.0000E-02  1.0000E-02  1.0000E-02  1.0000E-02  1.0000E-02  1.0000E-02  1.0000E-02  1.0000E-02
       1.0000E-02  1.0000E-02  1.0000E-02  1.0000E-02  1.0000E-02  1.0000E-02  1.0000E-02  1.0000E-02  1.0000E-02  1.0000E-02
       1.0000E-02   0.000      1.0000E-02  1.0000E-02  1.0000E-02  1.0000E-02  1.0000E-02  1.0000E-02  1.0000E-02  1.0000E-02
       1.0000E-02  1.0000E-02  1.0000E-02  1.0000E-02  1.0000E-02  1.0000E-02  1.0000E-02  1.0000E-02  1.0000E-02  1.0000E-02
       1.0000E-02  1.0000E-02  1.0000E-02  1.0000E-02  1.0000E-02  1.0000E-02  1.0000E-02  1.0000E-02  1.0000E-02  1.0000E-02
       1.0000E-02  1.0000E-02  1.0000E-02  1.0000E-02  1.0000E-02  1.0000E-02  1.0000E-02  1.0000E-02  1.0000E-02  1.0000E-02
       1.0000E-02  1.0000E-02  1.0000E-02  1.0000E-02  1.0000E-02  1.0000E-02  1.0000E-02  1.0000E-02  1.0000E-02  1.0000E-02
       1.0000E-02  1.0000E-02  1.0000E-02  1.0000E-02  1.0000E-02  1.0000E-02
  62   1.0000E-02  1.0000E-02  1.0000E-02  1.0000E-02  1.0000E-02  1.0000E-02  1.0000E-02  1.0000E-02  1.0000E-02  1.0000E-02
       1.0000E-02  1.0000E-02  1.0000E-02  1.0000E-02  1.0000E-02  1.0000E-02  1.0000E-02  1.0000E-02  1.0000E-02  1.0000E-02
       1.0000E-02   0.000      1.0000E-02  1.0000E-02  1.0000E-02  1.0000E-02  1.0000E-02  1.0000E-02  1.0000E-02  1.0000E-02
       1.0000E-02  1.0000E-02  1.0000E-02  1.0000E-02  1.0000E-02  1.0000E-02  1.0000E-02  1.0000E-02  1.0000E-02  1.0000E-02
       1.0000E-02  1.0000E-02  1.0000E-02  1.0000E-02  1.0000E-02  1.0000E-02  1.0000E-02  1.0000E-02  1.0000E-02  1.0000E-02
       1.0000E-02  1.0000E-02  1.0000E-02  1.0000E-02  1.0000E-02  1.0000E-02  1.0000E-02  1.0000E-02  1.0000E-02  1.0000E-02
       1.0000E-02  1.0000E-02  1.0000E-02  1.0000E-02  1.0000E-02  1.0000E-02  1.0000E-02  1.0000E-02  1.0000E-02  1.0000E-02
       1.0000E-02  1.0000E-02  1.0000E-02  1.0000E-02  1.0000E-02  1.0000E-02
  63   1.0000E-02  1.0000E-02  1.0000E-02  1.0000E-02  1.0000E-02  1.0000E-02  1.0000E-02  1.0000E-02  1.0000E-02  1.0000E-02
       1.0000E-02  1.0000E-02  1.0000E-02  1.0000E-02  1.0000E-02  1.0000E-02  1.0000E-02  1.0000E-02  1.0000E-02  1.0000E-02
       1.0000E-02  1.0000E-02  1.0000E-02  1.0000E-02  1.0000E-02  1.0000E-02  1.0000E-02  1.0000E-02  1.0000E-02  1.0000E-02
       1.0000E-02  1.0000E-02  1.0000E-02  1.0000E-02  1.0000E-02  1.0000E-02  1.0000E-02  1.0000E-02  1.0000E-02  1.0000E-02
       1.0000E-02  1.0000E-02  1.0000E-02  1.0000E-02  1.0000E-02  1.0000E-02  1.0000E-02  1.0000E-02  1.0000E-02  1.0000E-02
       1.0000E-02  1.0000E-02  1.0000E-02  1.0000E-02  1.0000E-02  1.0000E-02  1.0000E-02  1.0000E-02  1.0000E-02  1.0000E-02
       1.0000E-02  1.0000E-02  1.0000E-02  1.0000E-02  1.0000E-02  1.0000E-02  1.0000E-02  1.0000E-02  1.0000E-02  1.0000E-02
       1.0000E-02  1.0000E-02  1.0000E-02  1.0000E-02  1.0000E-02  1.0000E-02
  64   1.0000E-02  1.0000E-02  1.0000E-02  1.0000E-02  1.0000E-02  1.0000E-02  1.0000E-02  1.0000E-02  1.0000E-02  1.0000E-02
       1.0000E-02  1.0000E-02  1.0000E-02  1.0000E-02  1.0000E-02  1.0000E-02  1.0000E-02  1.0000E-02  1.0000E-02  1.0000E-02
        0.000      1.0000E-02  1.0000E-02  1.0000E-02  1.0000E-02  1.0000E-02  1.0000E-02  1.0000E-02  1.0000E-02  1.0000E-02
       1.0000E-02  1.0000E-02  1.0000E-02  1.0000E-02  1.0000E-02  1.0000E-02  1.0000E-02  1.0000E-02  1.0000E-02  1.0000E-02
       1.0000E-02  1.0000E-02  1.0000E-02  1.0000E-02  1.0000E-02  1.0000E-02  1.0000E-02  1.0000E-02  1.0000E-02  1.0000E-02
       1.0000E-02  1.0000E-02  1.0000E-02  1.0000E-02  1.0000E-02  1.0000E-02  1.0000E-02  1.0000E-02  1.0000E-02  1.0000E-02
       1.0000E-02  1.0000E-02  1.0000E-02  1.0000E-02  1.0000E-02  1.0000E-02  1.0000E-02  1.0000E-02  1.0000E-02  1.0000E-02
       1.0000E-02  1.0000E-02  1.0000E-02  1.0000E-02  1.0000E-02  1.0000E-02
  65   1.0000E-02  1.0000E-02  1.0000E-02  1.0000E-02  1.0000E-02  1.0000E-02  1.0000E-02  1.0000E-02  1.0000E-02  1.0000E-02
       1.0000E-02  1.0000E-02  1.0000E-02  1.0000E-02  1.0000E-02  1.0000E-02  1.0000E-02  1.0000E-02  1.0000E-02  1.0000E-02
        0.000      1.0000E-02  1.0000E-02  1.0000E-02  1.0000E-02  1.0000E-02  1.0000E-02  1.0000E-02  1.0000E-02  1.0000E-02
       1.0000E-02  1.0000E-02  1.0000E-02  1.0000E-02  1.0000E-02  1.0000E-02  1.0000E-02  1.0000E-02  1.0000E-02  1.0000E-02
       1.0000E-02  1.0000E-02  1.0000E-02  1.0000E-02  1.0000E-02  1.0000E-02  1.0000E-02  1.0000E-02  1.0000E-02  1.0000E-02
       1.0000E-02  1.0000E-02  1.0000E-02  1.0000E-02  1.0000E-02  1.0000E-02  1.0000E-02  1.0000E-02  1.0000E-02  1.0000E-02
       1.0000E-02  1.0000E-02  1.0000E-02  1.0000E-02  1.0000E-02  1.0000E-02  1.0000E-02  1.0000E-02  1.0000E-02  1.0000E-02
       1.0000E-02  1.0000E-02  1.0000E-02  1.0000E-02  1.0000E-02  1.0000E-02
  66   1.0000E-02  1.0000E-02  1.0000E-02  1.0000E-02  1.0000E-02  1.0000E-02  1.0000E-02  1.0000E-02  1.0000E-02  1.0000E-02
       1.0000E-02  1.0000E-02  1.0000E-02  1.0000E-02  1.0000E-02  1.0000E-02  1.0000E-02  1.0000E-02  1.0000E-02  1.0000E-02
        0.000      1.0000E-02  1.0000E-02  1.0000E-02  1.0000E-02  1.0000E-02  1.0000E-02  1.0000E-02  1.0000E-02  1.0000E-02
       1.0000E-02  1.0000E-02  1.0000E-02  1.0000E-02  1.0000E-02  1.0000E-02  1.0000E-02  1.0000E-02  1.0000E-02  1.0000E-02
       1.0000E-02  1.0000E-02  1.0000E-02  1.0000E-02  1.0000E-02  1.0000E-02  1.0000E-02  1.0000E-02  1.0000E-02  1.0000E-02
       1.0000E-02  1.0000E-02  1.0000E-02  1.0000E-02  1.0000E-02  1.0000E-02  1.0000E-02  1.0000E-02  1.0000E-02  1.0000E-02
       1.0000E-02  1.0000E-02  1.0000E-02  1.0000E-02  1.0000E-02  1.0000E-02  1.0000E-02  1.0000E-02  1.0000E-02  1.0000E-02
       1.0000E-02  1.0000E-02  1.0000E-02  1.0000E-02  1.0000E-02  1.0000E-02
  67   1.0000E-02  1.0000E-02  1.0000E-02  1.0000E-02  1.0000E-02  1.0000E-02  1.0000E-02  1.0000E-02  1.0000E-02  1.0000E-02
       1.0000E-02  1.0000E-02  1.0000E-02  1.0000E-02  1.0000E-02  1.0000E-02  1.0000E-02  1.0000E-02  1.0000E-02  1.0000E-02
       1.0000E-02  1.0000E-02  1.0000E-02  1.0000E-02  1.0000E-02  1.0000E-02  1.0000E-02  1.0000E-02  1.0000E-02  1.0000E-02
       1.0000E-02  1.0000E-02  1.0000E-02  1.0000E-02  1.0000E-02  1.0000E-02  1.0000E-02  1.0000E-02  1.0000E-02  1.0000E-02
       1.0000E-02  1.0000E-02  1.0000E-02  1.0000E-02  1.0000E-02  1.0000E-02  1.0000E-02  1.0000E-02  1.0000E-02  1.0000E-02
       1.0000E-02  1.0000E-02  1.0000E-02  1.0000E-02  1.0000E-02  1.0000E-02  1.0000E-02  1.0000E-02  1.0000E-02  1.0000E-02
       1.0000E-02  1.0000E-02  1.0000E-02  1.0000E-02  1.0000E-02  1.0000E-02  1.0000E-02  1.0000E-02  1.0000E-02  1.0000E-02
       1.0000E-02  1.0000E-02  1.0000E-02  1.0000E-02  1.0000E-02  1.0000E-02
  68   1.0000E-02  1.0000E-02  1.0000E-02  1.0000E-02  1.0000E-02  1.0000E-02  1.0000E-02  1.0000E-02  1.0000E-02  1.0000E-02
       1.0000E-02  1.0000E-02  1.0000E-02  1.0000E-02  1.0000E-02  1.0000E-02  1.0000E-02  1.0000E-02  1.0000E-02   0.000    
       1.0000E-02  1.0000E-02  1.0000E-02  1.0000E-02  1.0000E-02  1.0000E-02  1.0000E-02  1.0000E-02  1.0000E-02  1.0000E-02
       1.0000E-02  1.0000E-02  1.0000E-02  1.0000E-02  1.0000E-02  1.0000E-02  1.0000E-02  1.0000E-02  1.0000E-02  1.0000E-02
       1.0000E-02  1.0000E-02  1.0000E-02  1.0000E-02  1.0000E-02  1.0000E-02  1.0000E-02  1.0000E-02  1.0000E-02  1.0000E-02
       1.0000E-02  1.0000E-02  1.0000E-02  1.0000E-02  1.0000E-02  1.0000E-02  1.0000E-02  1.0000E-02  1.0000E-02  1.0000E-02
       1.0000E-02  1.0000E-02  1.0000E-02  1.0000E-02  1.0000E-02  1.0000E-02  1.0000E-02  1.0000E-02  1.0000E-02  1.0000E-02
       1.0000E-02  1.0000E-02  1.0000E-02  1.0000E-02  1.0000E-02  1.0000E-02
  69   1.0000E-02  1.0000E-02  1.0000E-02  1.0000E-02  1.0000E-02  1.0000E-02  1.0000E-02  1.0000E-02  1.0000E-02  1.0000E-02
       1.0000E-02  1.0000E-02  1.0000E-02  1.0000E-02  1.0000E-02  1.0000E-02  1.0000E-02  1.0000E-02  1.0000E-02   0.000    
       1.0000E-02  1.0000E-02  1.0000E-02  1.0000E-02  1.0000E-02  1.0000E-02  1.0000E-02  1.0000E-02  1.0000E-02  1.0000E-02
       1.0000E-02  1.0000E-02  1.0000E-02  1.0000E-02  1.0000E-02  1.0000E-02  1.0000E-02  1.0000E-02  1.0000E-02  1.0000E-02
       1.0000E-02  1.0000E-02  1.0000E-02  1.0000E-02  1.0000E-02  1.0000E-02  1.0000E-02  1.0000E-02  1.0000E-02  1.0000E-02
       1.0000E-02  1.0000E-02  1.0000E-02  1.0000E-02  1.0000E-02  1.0000E-02  1.0000E-02  1.0000E-02  1.0000E-02  1.0000E-02
       1.0000E-02  1.0000E-02  1.0000E-02  1.0000E-02  1.0000E-02  1.0000E-02  1.0000E-02  1.0000E-02  1.0000E-02  1.0000E-02
       1.0000E-02  1.0000E-02  1.0000E-02  1.0000E-02  1.0000E-02  1.0000E-02
  70   1.0000E-02  1.0000E-02  1.0000E-02  1.0000E-02  1.0000E-02  1.0000E-02  1.0000E-02  1.0000E-02  1.0000E-02  1.0000E-02
       1.0000E-02  1.0000E-02  1.0000E-02  1.0000E-02  1.0000E-02  1.0000E-02  1.0000E-02  1.0000E-02  1.0000E-02   0.000    
       1.0000E-02  1.0000E-02  1.0000E-02  1.0000E-02  1.0000E-02  1.0000E-02  1.0000E-02  1.0000E-02  1.0000E-02  1.0000E-02
       1.0000E-02  1.0000E-02  1.0000E-02  1.0000E-02  1.0000E-02  1.0000E-02  1.0000E-02  1.0000E-02  1.0000E-02  1.0000E-02
       1.0000E-02  1.0000E-02  1.0000E-02  1.0000E-02  1.0000E-02  1.0000E-02  1.0000E-02  1.0000E-02  1.0000E-02  1.0000E-02
       1.0000E-02  1.0000E-02  1.0000E-02  1.0000E-02  1.0000E-02  1.0000E-02  1.0000E-02  1.0000E-02  1.0000E-02  1.0000E-02
       1.0000E-02  1.0000E-02  1.0000E-02  1.0000E-02  1.0000E-02  1.0000E-02  1.0000E-02  1.0000E-02  1.0000E-02  1.0000E-02
       1.0000E-02  1.0000E-02  1.0000E-02  1.0000E-02  1.0000E-02  1.0000E-02
  71   1.0000E-02  1.0000E-02  1.0000E-02  1.0000E-02  1.0000E-02  1.0000E-02  1.0000E-02  1.0000E-02  1.0000E-02  1.0000E-02
       1.0000E-02  1.0000E-02  1.0000E-02  1.0000E-02  1.0000E-02  1.0000E-02  1.0000E-02  1.0000E-02   0.000      1.0000E-02
       1.0000E-02  1.0000E-02  1.0000E-02  1.0000E-02  1.0000E-02  1.0000E-02  1.0000E-02  1.0000E-02  1.0000E-02  1.0000E-02
       1.0000E-02  1.0000E-02  1.0000E-02  1.0000E-02  1.0000E-02  1.0000E-02  1.0000E-02  1.0000E-02  1.0000E-02  1.0000E-02
       1.0000E-02  1.0000E-02  1.0000E-02  1.0000E-02  1.0000E-02  1.0000E-02  1.0000E-02  1.0000E-02  1.0000E-02  1.0000E-02
       1.0000E-02  1.0000E-02  1.0000E-02  1.0000E-02  1.0000E-02  1.0000E-02  1.0000E-02  1.0000E-02  1.0000E-02  1.0000E-02
       1.0000E-02  1.0000E-02  1.0000E-02  1.0000E-02  1.0000E-02  1.0000E-02  1.0000E-02  1.0000E-02  1.0000E-02  1.0000E-02
       1.0000E-02  1.0000E-02  1.0000E-02  1.0000E-02  1.0000E-02  1.0000E-02
  72    5.000       5.000       5.000       5.000       5.000       5.000       5.000       5.000       5.000       5.000    
        5.000       5.000       5.000       5.000       5.000       5.000       5.000       5.000       0.000       5.000    
        5.000       5.000       5.000       5.000       5.000       5.000       5.000       5.000       5.000       5.000    
        5.000       5.000       5.000       5.000       5.000       5.000       5.000       5.000       5.000       5.000    
        5.000       5.000       5.000       5.000       5.000       5.000       5.000       5.000       5.000       5.000    
        5.000       5.000       5.000       5.000       5.000       5.000       5.000       5.000       5.000       5.000    
        5.000       5.000       5.000       5.000       5.000       5.000       5.000       5.000       5.000       5.000    
        5.000       5.000       5.000       5.000       5.000       5.000    
  73    5.000       5.000       5.000       5.000       5.000       5.000       5.000       5.000       5.000       5.000    
        5.000       5.000       5.000       5.000       5.000       5.000       5.000       5.000       0.000       5.000    
        5.000       5.000       5.000       5.000       5.000       5.000       5.000       5.000       5.000       5.000    
        5.000       5.000       5.000       5.000       5.000       5.000       5.000       5.000       5.000       5.000    
        5.000       5.000       5.000       5.000       5.000       5.000       5.000       5.000       5.000       5.000    
        5.000       5.000       5.000       5.000       5.000       5.000       5.000       5.000       5.000       5.000    
        5.000       5.000       5.000       5.000       5.000       5.000       5.000       5.000       5.000       5.000    
        5.000       5.000       5.000       5.000       5.000       5.000    
  74    5.000       5.000       5.000       5.000       5.000       5.000       5.000       5.000       5.000       5.000    
        5.000       5.000       5.000       5.000       5.000       5.000       5.000       0.000       0.000       5.000    
        5.000       5.000       5.000       5.000       5.000       5.000       5.000       5.000       5.000       5.000    
        5.000       5.000       5.000       5.000       5.000       5.000       5.000       5.000       5.000       5.000    
        5.000       5.000       5.000       5.000       5.000       5.000       5.000       5.000       5.000       5.000    
        5.000       5.000       5.000       5.000       5.000       5.000       5.000       5.000       5.000       5.000    
        5.000       5.000       5.000       5.000       5.000       5.000       5.000       5.000       5.000       5.000    
        5.000       5.000       5.000       5.000       5.000       5.000    
  75    5.000       5.000       5.000       5.000       5.000       5.000       5.000       5.000       5.000       5.000    
        5.000       5.000       5.000       5.000       5.000       5.000       5.000       0.000       5.000       5.000    
        5.000       5.000       5.000       5.000       5.000       5.000       5.000       5.000       5.000       5.000    
        5.000       5.000       5.000       5.000       5.000       5.000       5.000       5.000       5.000       5.000    
        5.000       5.000       5.000       5.000       5.000       5.000       5.000       5.000       5.000       5.000    
        5.000       5.000       5.000       5.000       5.000       5.000       5.000       5.000       5.000       5.000    
        5.000       5.000       5.000       5.000       5.000       5.000       5.000       5.000       5.000       5.000    
        5.000       5.000       5.000       5.000       5.000       5.000    
  76    5.000       5.000       5.000       5.000       5.000       5.000       5.000       5.000       5.000       5.000    
        5.000       5.000       5.000       5.000       5.000       5.000       5.000       0.000       5.000       5.000    
        5.000       5.000       5.000       5.000       5.000       5.000       5.000       5.000       5.000       5.000    
        5.000       5.000       5.000       5.000       5.000       5.000       5.000       5.000       5.000       5.000    
        5.000       5.000       5.000       5.000       5.000       5.000       5.000       5.000       5.000       5.000    
        5.000       5.000       5.000       5.000       5.000       5.000       5.000       5.000       5.000       5.000    
        5.000       5.000       5.000       5.000       5.000       5.000       5.000       5.000       5.000       5.000    
        5.000       5.000       5.000       5.000       5.000       5.000    
  77    5.000       5.000       5.000       5.000       5.000       5.000       5.000       5.000       5.000       5.000    
        5.000       5.000       5.000       5.000       5.000       5.000       0.000       0.000       5.000       5.000    
        5.000       5.000       5.000       5.000       5.000       5.000       5.000       5.000       5.000       5.000    
        5.000       5.000       5.000       5.000       5.000       5.000       5.000       5.000       5.000       5.000    
        5.000       5.000       5.000       5.000       5.000       5.000       5.000       5.000       5.000       5.000    
        5.000       5.000       5.000       5.000       5.000       5.000       5.000       5.000       5.000       5.000    
        5.000       5.000       5.000       5.000       5.000       5.000       5.000       5.000       5.000       5.000    
        5.000       5.000       5.000       5.000       5.000       5.000    
  78    5.000       5.000       5.000       5.000       5.000       5.000       5.000       5.000       5.000       5.000    
        5.000       5.000       5.000       5.000       5.000       5.000       0.000       0.000       5.000       5.000    
        5.000       5.000       5.000       5.000       5.000       5.000       5.000       5.000       5.000       5.000    
        5.000       5.000       5.000       5.000       5.000       5.000       5.000       5.000       5.000       5.000    
        5.000       5.000       5.000       5.000       5.000       5.000       5.000       5.000       5.000       5.000    
        5.000       5.000       5.000       5.000       5.000       5.000       5.000       5.000       5.000       5.000    
        5.000       5.000       5.000       5.000       5.000       5.000       5.000       5.000       5.000       5.000    
        5.000       5.000       5.000       5.000       5.000       5.000    
  79    5.000       5.000       5.000       5.000       5.000       5.000       5.000       5.000       5.000       5.000    
        5.000       5.000       5.000       5.000       5.000       5.000       0.000       0.000       5.000       5.000    
        5.000       5.000       5.000       5.000       5.000       5.000       5.000       5.000       5.000       5.000    
        5.000       5.000       5.000       5.000       5.000       5.000       5.000       5.000       5.000       5.000    
        5.000       5.000       5.000       5.000       5.000       5.000       5.000       5.000       5.000       5.000    
        5.000       5.000       5.000       5.000       5.000       5.000       5.000       5.000       5.000       5.000    
        5.000       5.000       5.000       5.000       5.000       5.000       5.000       5.000       5.000       5.000    
        5.000       5.000       5.000       5.000       5.000       5.000    
  80    5.000       5.000       5.000       5.000       5.000       5.000       5.000       5.000       5.000       5.000    
        5.000       5.000       5.000       5.000       5.000       5.000       0.000       5.000       5.000       5.000    
        5.000       5.000       5.000       5.000       5.000       5.000       5.000       5.000       5.000       5.000    
        5.000       5.000       5.000       5.000       5.000       5.000       5.000       5.000       5.000       5.000    
        5.000       5.000       5.000       5.000       5.000       5.000       5.000       5.000       5.000       5.000    
        5.000       5.000       5.000       5.000       5.000       5.000       5.000       5.000       5.000       5.000    
        5.000       5.000       5.000       5.000       5.000       5.000       5.000       5.000       5.000       5.000    
        5.000       5.000       5.000       5.000       5.000       5.000    
  81    5.000       5.000       5.000       5.000       5.000       5.000       5.000       5.000       5.000       5.000    
        5.000       5.000       5.000       5.000       5.000       0.000       0.000       5.000       5.000       5.000    
        5.000       5.000       5.000       5.000       5.000       5.000       5.000       5.000       5.000       5.000    
        5.000       5.000       5.000       5.000       5.000       5.000       5.000       5.000       5.000       5.000    
        5.000       5.000       5.000       5.000       5.000       5.000       5.000       5.000       5.000       5.000    
        5.000       5.000       5.000       5.000       5.000       5.000       5.000       5.000       5.000       5.000    
        5.000       5.000       5.000       5.000       5.000       5.000       5.000       5.000       5.000       5.000    
        5.000       5.000       5.000       5.000       5.000       5.000    
  82    5.000       5.000       5.000       5.000       5.000       5.000       5.000       5.000       5.000       5.000    
        5.000       5.000       5.000       5.000       5.000       0.000       0.000       5.000       5.000       5.000    
        5.000       5.000       5.000       5.000       5.000       5.000       5.000       5.000       5.000       5.000    
        5.000       5.000       5.000       5.000       5.000       5.000       5.000       5.000       5.000       5.000    
        5.000       5.000       5.000       5.000       5.000       5.000       5.000       5.000       5.000       5.000    
        5.000       5.000       5.000       5.000       5.000       5.000       5.000       5.000       5.000       5.000    
        5.000       5.000       5.000       5.000       5.000       5.000       5.000       5.000       5.000       5.000    
        5.000       5.000       5.000       5.000       5.000       5.000    
  83    5.000       5.000       5.000       5.000       5.000       5.000       5.000       5.000       5.000       5.000    
        5.000       5.000       5.000       5.000       5.000       0.000       5.000       5.000       5.000       5.000    
        5.000       5.000       5.000       5.000       5.000       5.000       5.000       5.000       5.000       5.000    
        5.000       5.000       5.000       5.000       5.000       5.000       5.000       5.000       5.000       5.000    
        5.000       5.000       5.000       5.000       5.000       5.000       5.000       5.000       5.000       5.000    
        5.000       5.000       5.000       5.000       5.000       5.000       5.000       5.000       5.000       5.000    
        5.000       5.000       5.000       5.000       5.000       5.000       5.000       5.000       5.000       5.000    
        5.000       5.000       5.000       5.000       5.000       5.000    
  84    5.000       5.000       5.000       5.000       5.000       5.000       5.000       5.000       5.000       5.000    
        5.000       5.000       5.000       5.000       0.000       0.000       5.000       5.000       5.000       5.000    
        5.000       5.000       5.000       5.000       5.000       5.000       5.000       5.000       5.000       5.000    
        5.000       5.000       5.000       5.000       5.000       5.000       5.000       5.000       5.000       5.000    
        5.000       5.000       5.000       5.000       5.000       5.000       5.000       5.000       5.000       5.000    
        5.000       5.000       5.000       5.000       5.000       5.000       5.000       5.000       5.000       5.000    
        5.000       5.000       5.000       5.000       5.000       5.000       5.000       5.000       5.000       5.000    
        5.000       5.000       5.000       5.000       5.000       5.000    
  85    5.000       5.000       5.000       5.000       5.000       5.000       5.000       5.000       5.000       5.000    
        5.000       5.000       5.000       5.000       0.000       0.000       5.000       5.000       5.000       5.000    
        5.000       5.000       5.000       5.000       5.000       5.000       5.000       5.000       5.000       5.000    
        5.000       5.000       5.000       5.000       5.000       5.000       5.000       5.000       5.000       5.000    
        5.000       5.000       5.000       5.000       5.000       5.000       5.000       5.000       5.000       5.000    
        5.000       5.000       5.000       5.000       5.000       5.000       5.000       5.000       5.000       5.000    
        5.000       5.000       5.000       5.000       5.000       5.000       5.000       5.000       5.000       5.000    
        5.000       5.000       5.000       5.000       5.000       5.000    
  86    5.000       5.000       5.000       5.000       5.000       5.000       5.000       5.000       5.000       5.000    
        5.000       5.000       5.000       5.000       0.000       5.000       5.000       5.000       5.000       5.000    
        5.000       5.000       5.000       5.000       5.000       5.000       5.000       5.000       5.000       5.000    
        5.000       5.000       5.000       5.000       5.000       5.000       5.000       5.000       5.000       5.000    
        5.000       5.000       5.000       5.000       5.000       5.000       5.000       5.000       5.000       5.000    
        5.000       5.000       5.000       5.000       5.000       5.000       5.000       5.000       5.000       5.000    
        5.000       5.000       5.000       5.000       5.000       5.000       5.000       5.000       5.000       5.000    
        5.000       5.000       5.000       5.000       5.000       5.000    
  87    5.000       5.000       5.000       5.000       5.000       5.000       5.000       5.000       5.000       5.000    
        5.000       5.000       5.000       0.000       0.000       5.000       5.000       5.000       5.000       5.000    
        5.000       5.000       5.000       5.000       5.000       5.000       5.000       5.000       5.000       5.000    
        5.000       5.000       5.000       5.000       5.000       5.000       5.000       5.000       5.000       5.000    
        5.000       5.000       5.000       5.000       5.000       5.000       5.000       5.000       5.000       5.000    
        5.000       5.000       5.000       5.000       5.000       5.000       5.000       5.000       5.000       5.000    
        5.000       5.000       5.000       5.000       5.000       5.000       5.000       5.000       5.000       5.000    
        5.000       5.000       5.000       5.000       5.000       5.000    
  88    5.000       5.000       5.000       5.000       5.000       5.000       5.000       5.000       5.000       5.000    
        5.000       5.000       5.000       0.000       0.000       5.000       5.000       5.000       5.000       5.000    
        5.000       5.000       5.000       5.000       5.000       5.000       5.000       5.000       5.000       5.000    
        5.000       5.000       5.000       5.000       5.000       5.000       5.000       5.000       5.000       5.000    
        5.000       5.000       5.000       5.000       5.000       5.000       5.000       5.000       5.000       5.000    
        5.000       5.000       5.000       5.000       5.000       5.000       5.000       5.000       5.000       5.000    
        5.000       5.000       5.000       5.000       5.000       5.000       5.000       5.000       5.000       5.000    
        5.000       5.000       5.000       5.000       5.000       5.000    
  89    5.000       5.000       5.000       5.000       5.000       5.000       5.000       5.000       5.000       5.000    
        5.000       5.000       5.000       0.000       5.000       5.000       5.000       5.000       5.000       5.000    
        5.000       5.000       5.000       5.000       5.000       5.000       5.000       5.000       5.000       5.000    
        5.000       5.000       5.000       5.000       5.000       5.000       5.000       5.000       5.000       5.000    
        5.000       5.000       5.000       5.000       5.000       5.000       5.000       5.000       5.000       5.000    
        5.000       5.000       5.000       5.000       5.000       5.000       5.000       5.000       5.000       5.000    
        5.000       5.000       5.000       5.000       5.000       5.000       5.000       5.000       5.000       5.000    
        5.000       5.000       5.000       5.000       5.000       5.000    
  90    5.000       5.000       5.000       5.000       5.000       5.000       5.000       5.000       5.000       5.000    
        5.000       5.000       0.000       0.000       5.000       5.000       5.000       5.000       5.000       5.000    
        5.000       5.000       5.000       5.000       5.000       5.000       5.000       5.000       5.000       5.000    
        5.000       5.000       5.000       5.000       5.000       5.000       5.000       5.000       5.000       5.000    
        5.000       5.000       5.000       5.000       5.000       5.000       5.000       5.000       5.000       5.000    
        5.000       5.000       5.000       5.000       5.000       5.000       5.000       5.000       5.000       5.000    
        5.000       5.000       5.000       5.000       5.000       5.000       5.000       5.000       5.000       5.000    
        5.000       5.000       5.000       5.000       5.000       5.000    
  91    5.000       5.000       5.000       5.000       5.000       5.000       5.000       5.000       5.000       5.000    
        5.000       5.000       0.000       0.000       5.000       5.000       5.000       5.000       5.000       5.000    
        5.000       5.000       5.000       5.000       5.000       5.000       5.000       5.000       5.000       5.000    
        5.000       5.000       5.000       5.000       5.000       5.000       5.000       5.000       5.000       5.000    
        5.000       5.000       5.000       5.000       5.000       5.000       5.000       5.000       5.000       5.000    
        5.000       5.000       5.000       5.000       5.000       5.000       5.000       5.000       5.000       5.000    
        5.000       5.000       5.000       5.000       5.000       5.000       5.000       5.000       5.000       5.000    
        5.000       5.000       5.000       5.000       5.000       5.000    
  92    5.000       5.000       5.000       5.000       5.000       5.000       5.000       5.000       5.000       5.000    
        5.000       5.000       0.000       5.000       5.000       5.000       5.000       5.000       5.000       5.000    
        5.000       5.000       5.000       5.000       5.000       5.000       5.000       5.000       5.000       5.000    
        5.000       5.000       5.000       5.000       5.000       5.000       5.000       5.000       5.000       5.000    
        5.000       5.000       5.000       5.000       5.000       5.000       5.000       5.000       5.000       5.000    
        5.000       5.000       5.000       5.000       5.000       5.000       5.000       5.000       5.000       5.000    
        5.000       5.000       5.000       5.000       5.000       5.000       5.000       5.000       5.000       5.000    
        5.000       5.000       5.000       5.000       5.000       5.000    
  93    5.000       5.000       5.000       5.000       5.000       5.000       5.000       5.000       5.000       5.000    
        5.000       5.000       0.000       5.000       5.000       5.000       5.000       5.000       5.000       5.000    
        5.000       5.000       5.000       5.000       5.000       5.000       5.000       5.000       5.000       5.000    
        5.000       5.000       5.000       5.000       5.000       5.000       5.000       5.000       5.000       5.000    
        5.000       5.000       5.000       5.000       5.000       5.000       5.000       5.000       5.000       5.000    
        5.000       5.000       5.000       5.000       5.000       5.000       5.000       5.000       5.000       5.000    
        5.000       5.000       5.000       5.000       5.000       5.000       5.000       5.000       5.000       5.000    
        5.000       5.000       5.000       5.000       5.000       5.000    
  94    5.000       5.000       5.000       5.000       5.000       5.000       5.000       5.000       5.000       5.000    
        5.000       0.000       0.000       5.000       5.000       5.000       5.000       5.000       5.000       5.000    
        5.000       5.000       5.000       5.000       5.000       5.000       5.000       5.000       5.000       5.000    
        5.000       5.000       5.000       5.000       5.000       5.000       5.000       5.000       5.000       5.000    
        5.000       5.000       5.000       5.000       5.000       5.000       5.000       5.000       5.000       5.000    
        5.000       5.000       5.000       5.000       5.000       5.000       5.000       5.000       5.000       5.000    
        5.000       5.000       5.000       5.000       5.000       5.000       5.000       5.000       5.000       5.000    
        5.000       5.000       5.000       5.000       5.000       5.000    
  95    5.000       5.000       5.000       5.000       5.000       5.000       5.000       5.000       5.000       5.000    
        5.000       0.000       5.000       5.000       5.000       5.000       5.000       5.000       5.000       5.000    
        5.000       5.000       5.000       5.000       5.000       5.000       5.000       5.000       5.000       5.000    
        5.000       5.000       5.000       5.000       5.000       5.000       5.000       5.000       5.000       5.000    
        5.000       5.000       5.000       5.000       5.000       5.000       5.000       5.000       5.000       5.000    
        5.000       5.000       5.000       5.000       5.000       5.000       5.000       5.000       5.000       5.000    
        5.000       5.000       5.000       5.000       5.000       5.000       5.000       5.000       5.000       5.000    
        5.000       5.000       5.000       5.000       5.000       5.000    
  96    5.000       5.000       5.000       5.000       5.000       5.000       5.000       5.000       5.000       5.000    
        5.000       0.000       5.000       5.000       5.000       5.000       5.000       5.000       5.000       5.000    
        5.000       5.000       5.000       5.000       5.000       5.000       5.000       5.000       5.000       5.000    
        5.000       5.000       5.000       5.000       5.000       5.000       5.000       5.000       5.000       5.000    
        5.000       5.000       5.000       5.000       5.000       5.000       5.000       5.000       5.000       5.000    
        5.000       5.000       5.000       5.000       5.000       5.000       5.000       5.000       5.000       5.000    
        5.000       5.000       5.000       5.000       5.000       5.000       5.000       5.000       5.000       5.000    
        5.000       5.000       5.000       5.000       5.000       5.000    
  97    5.000       5.000       5.000       5.000       5.000       5.000       5.000       5.000       5.000       5.000    
        0.000       0.000       5.000       5.000       5.000       5.000       5.000       5.000       5.000       5.000    
        5.000       5.000       5.000       5.000       5.000       5.000       5.000       5.000       5.000       5.000    
        5.000       5.000       5.000       5.000       5.000       5.000       5.000       5.000       5.000       5.000    
        5.000       5.000       5.000       5.000       5.000       5.000       5.000       5.000       5.000       5.000    
        5.000       5.000       5.000       5.000       5.000       5.000       5.000       5.000       5.000       5.000    
        5.000       5.000       5.000       5.000       5.000       5.000       5.000       5.000       5.000       5.000    
        5.000       5.000       5.000       5.000       5.000       5.000    
  98    5.000       5.000       5.000       5.000       5.000       5.000       5.000       5.000       5.000       5.000    
        0.000       5.000       5.000       5.000       5.000       5.000       5.000       5.000       5.000       5.000    
        5.000       5.000       5.000       5.000       5.000       5.000       5.000       5.000       5.000       5.000    
        5.000       5.000       5.000       5.000       5.000       5.000       5.000       5.000       5.000       5.000    
        5.000       5.000       5.000       5.000       5.000       5.000       5.000       5.000       5.000       5.000    
        5.000       5.000       5.000       5.000       5.000       5.000       5.000       5.000       5.000       5.000    
        5.000       5.000       5.000       5.000       5.000       5.000       5.000       5.000       5.000       5.000    
        5.000       5.000       5.000       5.000       5.000       5.000    
  99    5.000       5.000       5.000       5.000       5.000       5.000       5.000       5.000       5.000       5.000    
        0.000       5.000       5.000       5.000       5.000       5.000       5.000       5.000       5.000       5.000    
        5.000       5.000       5.000       5.000       5.000       5.000       5.000       5.000       5.000       5.000    
        5.000       5.000       5.000       5.000       5.000       5.000       5.000       5.000       5.000       5.000    
        5.000       5.000       5.000       5.000       5.000       5.000       5.000       5.000       5.000       5.000    
        5.000       5.000       5.000       5.000       5.000       5.000       5.000       5.000       5.000       5.000    
        5.000       5.000       5.000       5.000       5.000       5.000       5.000       5.000       5.000       5.000    
        5.000       5.000       5.000       5.000       5.000       5.000    
 100    5.000       5.000       5.000       5.000       5.000       5.000       5.000       5.000       5.000       0.000    
        0.000       5.000       5.000       5.000       5.000       5.000       5.000       5.000       5.000       5.000    
        5.000       5.000       5.000       5.000       5.000       5.000       5.000       5.000       5.000       5.000    
        5.000       5.000       5.000       5.000       5.000       5.000       5.000       5.000       5.000       5.000    
        5.000       5.000       5.000       5.000       5.000       5.000       5.000       5.000       5.000       5.000    
        5.000       5.000       5.000       5.000       5.000       5.000       5.000       5.000       5.000       5.000    
        5.000       5.000       5.000       5.000       5.000       5.000       5.000       5.000       5.000       5.000    
        5.000       5.000       5.000       5.000       5.000       5.000    
 101    5.000       5.000       5.000       5.000       5.000       5.000       5.000       5.000       5.000       0.000    
        5.000       5.000       5.000       5.000       5.000       5.000       5.000       5.000       5.000       5.000    
        5.000       5.000       5.000       5.000       5.000       5.000       5.000       5.000       5.000       5.000    
        5.000       5.000       5.000       5.000       5.000       5.000       5.000       5.000       5.000       5.000    
        5.000       5.000       5.000       5.000       5.000       5.000       5.000       5.000       5.000       5.000    
        5.000       5.000       5.000       5.000       5.000       5.000       5.000       5.000       5.000       5.000    
        5.000       5.000       5.000       5.000       5.000       5.000       5.000       5.000       5.000       5.000    
        5.000       5.000       5.000       5.000       5.000       5.000    
 102    5.000       5.000       5.000       5.000       5.000       5.000       5.000       5.000       5.000       0.000    
        5.000       5.000       5.000       5.000       5.000       5.000       5.000       5.000       5.000       5.000    
        5.000       5.000       5.000       5.000       5.000       5.000       5.000       5.000       5.000       5.000    
        5.000       5.000       5.000       5.000       5.000       5.000       5.000       5.000       5.000       5.000    
        5.000       5.000       5.000       5.000       5.000       5.000       5.000       5.000       5.000       5.000    
        5.000       5.000       5.000       5.000       5.000       5.000       5.000       5.000       5.000       5.000    
        5.000       5.000       5.000       5.000       5.000       5.000       5.000       5.000       5.000       5.000    
        5.000       5.000       5.000       5.000       5.000       5.000    
 103    5.000       5.000       5.000       5.000       5.000       5.000       5.000       5.000       0.000       0.000    
        5.000       5.000       5.000       5.000       5.000       5.000       5.000       5.000       5.000       5.000    
        5.000       5.000       5.000       5.000       5.000       5.000       5.000       5.000       5.000       5.000    
        5.000       5.000       5.000       5.000       5.000       5.000       5.000       5.000       5.000       5.000    
        5.000       5.000       5.000       5.000       5.000       5.000       5.000       5.000       5.000       5.000    
        5.000       5.000       5.000       5.000       5.000       5.000       5.000       5.000       5.000       5.000    
        5.000       5.000       5.000       5.000       5.000       5.000       5.000       5.000       5.000       5.000    
        5.000       5.000       5.000       5.000       5.000       5.000    
 104    5.000       5.000       5.000       5.000       5.000       5.000       5.000       5.000       0.000       0.000    
        5.000       5.000       5.000       5.000       5.000       5.000       5.000       5.000       5.000       5.000    
        5.000       5.000       5.000       5.000       5.000       5.000       5.000       5.000       5.000       5.000    
        5.000       5.000       5.000       5.000       5.000       5.000       5.000       5.000       5.000       5.000    
        5.000       5.000       5.000       5.000       5.000       0.000       0.000       0.000       0.000       0.000    
        0.000       5.000       5.000       5.000       5.000       5.000       5.000       5.000       5.000       5.000    
        5.000       5.000       5.000       5.000       5.000       5.000       5.000       5.000       5.000       5.000    
        5.000       5.000       5.000       5.000       5.000       5.000    
 105    5.000       5.000       5.000       5.000       5.000       5.000       5.000       5.000       0.000       5.000    
        5.000       5.000       5.000       5.000       5.000       5.000       5.000       5.000       5.000       5.000    
        5.000       5.000       5.000       5.000       5.000       5.000       5.000       5.000       5.000       5.000    
        5.000       5.000       5.000       5.000       5.000       5.000       5.000       5.000       5.000       5.000    
        5.000       5.000       0.000       0.000       0.000       0.000       0.000       0.000       0.000       0.000    
        0.000       0.000       0.000       0.000       0.000       0.000       0.000       0.000       5.000       5.000    
        5.000       5.000       5.000       5.000       5.000       5.000       5.000       5.000       5.000       5.000    
        5.000       5.000       5.000       5.000       5.000       5.000    
 106    5.000       5.000       5.000       5.000       5.000       5.000       5.000       5.000       0.000       5.000    
        5.000       5.000       5.000       5.000       5.000       5.000       5.000       5.000       5.000       5.000    
        5.000       5.000       5.000       5.000       5.000       5.000       5.000       5.000       5.000       5.000    
        5.000       5.000       5.000       5.000       5.000       5.000       5.000       5.000       5.000       5.000    
        5.000       5.000       0.000       0.000       0.000       0.000       0.000       0.000       0.000       0.000    
        0.000       0.000       0.000       0.000       0.000       0.000       0.000       0.000       0.000       0.000    
        0.000       0.000       0.000       5.000       5.000       5.000       5.000       5.000       5.000       5.000    
        5.000       5.000       5.000       5.000       5.000       5.000    
 107    5.000       5.000       5.000       5.000       5.000       5.000       5.000       0.000       0.000       5.000    
        5.000       5.000       5.000       5.000       5.000       5.000       5.000       5.000       5.000       5.000    
        5.000       5.000       5.000       5.000       5.000       5.000       5.000       5.000       5.000       5.000    
        5.000       5.000       5.000       5.000       5.000       5.000       5.000       5.000       5.000       5.000    
        5.000       0.000       0.000       0.000       0.000       0.000       0.000       0.000       0.000       0.000    
        0.000       0.000       0.000       0.000       0.000       0.000       0.000       0.000       0.000       0.000    
        0.000       0.000       0.000       0.000       0.000       0.000       0.000       0.000       5.000       5.000    
        5.000       5.000       5.000       5.000       5.000       5.000    
 108    5.000       5.000       5.000       5.000       5.000       5.000       5.000       0.000       5.000       5.000    
        5.000       5.000       5.000       5.000       5.000       5.000       5.000       5.000       5.000       5.000    
        5.000       5.000       5.000       5.000       5.000       5.000       5.000       5.000       5.000       5.000    
        5.000       5.000       5.000       5.000       5.000       5.000       5.000       5.000       5.000       5.000    
        5.000       0.000       0.000       0.000       0.000       0.000       0.000       0.000       0.000       0.000    
        0.000       0.000       0.000       0.000       0.000       0.000       0.000       0.000       0.000       0.000    
        0.000       0.000       0.000       0.000       0.000       0.000       0.000       0.000       0.000       0.000    
        0.000       0.000       5.000       5.000       5.000       5.000    
 109    5.000       5.000       5.000       5.000       5.000       5.000       5.000       0.000       5.000       5.000    
        5.000       5.000       5.000       5.000       5.000       5.000       5.000       5.000       5.000       5.000    
        5.000       5.000       5.000       5.000       5.000       5.000       5.000       5.000       5.000       5.000    
        5.000       5.000       5.000       5.000       5.000       5.000       5.000       5.000       5.000       5.000    
        0.000       0.000       0.000       0.000       0.000       0.000       0.000       0.000       0.000       0.000    
        0.000       0.000       0.000       0.000       0.000       0.000       0.000       0.000       0.000       0.000    
        0.000       0.000       0.000       0.000       0.000       0.000       0.000       0.000       0.000       0.000    
        0.000       0.000       0.000       0.000       0.000       5.000    
 110    5.000       5.000       5.000       5.000       5.000       5.000       0.000       0.000       5.000       5.000    
        5.000       5.000       5.000       5.000       5.000       5.000       5.000       5.000       5.000       5.000    
        5.000       5.000       5.000       5.000       5.000       5.000       5.000       5.000       5.000       5.000    
        5.000       5.000       5.000       5.000       5.000       5.000       5.000       5.000       5.000       5.000    
        0.000       0.000       0.000       0.000       0.000       0.000       0.000       0.000       0.000       0.000    
        0.000       0.000       0.000       0.000       0.000       0.000       0.000       0.000       0.000       0.000    
        0.000       0.000       0.000       0.000       0.000       0.000       0.000       0.000       0.000       0.000    
        0.000       0.000       0.000       0.000       0.000       0.000    
 111    5.000       5.000       5.000       5.000       5.000       5.000       0.000       5.000       5.000       5.000    
        5.000       5.000       5.000       5.000       5.000       5.000       5.000       5.000       5.000       5.000    
        5.000       5.000       5.000       5.000       5.000       5.000       5.000       5.000       5.000       5.000    
        5.000       5.000       5.000       5.000       5.000       5.000       5.000       5.000       5.000       0.000    
        0.000       0.000       0.000       0.000       0.000       0.000       0.000       0.000       0.000       0.000    
        0.000       0.000       0.000       0.000       0.000       0.000       0.000       0.000       0.000       0.000    
        0.000       0.000       0.000       0.000       0.000       0.000       0.000       0.000       0.000       0.000    
        0.000       0.000       0.000       0.000       0.000       0.000    
 112    5.000       5.000       5.000       5.000       5.000       5.000       0.000       5.000       5.000       5.000    
        5.000       5.000       5.000       5.000       5.000       5.000       5.000       5.000       5.000       5.000    
        5.000       5.000       5.000       5.000       5.000       5.000       5.000       5.000       5.000       5.000    
        5.000       5.000       5.000       5.000       5.000       5.000       5.000       5.000       5.000       0.000    
        0.000       0.000       0.000       0.000       0.000       0.000       0.000       0.000       0.000       0.000    
        0.000       0.000       0.000       0.000       0.000       0.000       0.000       0.000       0.000       0.000    
        0.000       0.000       0.000       0.000       0.000       0.000       0.000       0.000       0.000       0.000    
        0.000       0.000       0.000       0.000       0.000       0.000    
 113    5.000       5.000       5.000       5.000       5.000       0.000       0.000       5.000       5.000       5.000    
        5.000       5.000       5.000       5.000       5.000       5.000       5.000       5.000       5.000       5.000    
        5.000       5.000       5.000       5.000       5.000       5.000       5.000       5.000       5.000       5.000    
        5.000       5.000       5.000       5.000       5.000       5.000       5.000       5.000       0.000       0.000    
        0.000       0.000       0.000       0.000       0.000       0.000       0.000       0.000       0.000       0.000    
        0.000       0.000       0.000       0.000       0.000       0.000       0.000       0.000       0.000       0.000    
        0.000       0.000       0.000       0.000       0.000       0.000       0.000       0.000       0.000       0.000    
        0.000       0.000       0.000       0.000       0.000       0.000    
 114    5.000       5.000       5.000       5.000       5.000       0.000       5.000       5.000       5.000       5.000    
        5.000       5.000       5.000       5.000       5.000       5.000       5.000       5.000       5.000       5.000    
        5.000       5.000       5.000       5.000       5.000       5.000       5.000       5.000       5.000       5.000    
        5.000       5.000       5.000       5.000       5.000       5.000       5.000       5.000       0.000       0.000    
        0.000       0.000       0.000       0.000       0.000       0.000       0.000       0.000       0.000       0.000    
        0.000       0.000       0.000       0.000       0.000       0.000       0.000       0.000       0.000       0.000    
        0.000       0.000       0.000       0.000       0.000       0.000       0.000       0.000       0.000       0.000    
        0.000       0.000       0.000       0.000       0.000       0.000    
 115    5.000       5.000       5.000       5.000       5.000       0.000       5.000       5.000       5.000       5.000    
        5.000       5.000       5.000       5.000       5.000       5.000       5.000       5.000       5.000       5.000    
        5.000       5.000       5.000       5.000       5.000       5.000       5.000       5.000       5.000       5.000    
        5.000       5.000       5.000       5.000       5.000       5.000       5.000       5.000       5.000       0.000    
        0.000       0.000       0.000       0.000       0.000       0.000       0.000       0.000       0.000       0.000    
        0.000       0.000       0.000       0.000       0.000       0.000       0.000       0.000       0.000       0.000    
        0.000       0.000       0.000       0.000       0.000       0.000       0.000       0.000       0.000       0.000    
        0.000       0.000       0.000       0.000       0.000       0.000    
 116    5.000       5.000       5.000       5.000       0.000       0.000       5.000       5.000       5.000       5.000    
        5.000       5.000       5.000       5.000       5.000       5.000       5.000       5.000       5.000       5.000    
        5.000       5.000       5.000       5.000       5.000       5.000       5.000       5.000       5.000       5.000    
        5.000       5.000       5.000       5.000       5.000       5.000       5.000       5.000       5.000       0.000    
        0.000       0.000       0.000       0.000       0.000       0.000       0.000       0.000       0.000       0.000    
        0.000       0.000       0.000       0.000       0.000       0.000       0.000       0.000       0.000       0.000    
        0.000       0.000       0.000       0.000       0.000       0.000       0.000       0.000       0.000       0.000    
        0.000       0.000       0.000       0.000       0.000       0.000    
 117    5.000       5.000       5.000       5.000       0.000       5.000       5.000       5.000       5.000       5.000    
        5.000       5.000       5.000       5.000       5.000       5.000       5.000       5.000       5.000       5.000    
        5.000       5.000       5.000       5.000       5.000       5.000       5.000       5.000       5.000       5.000    
        5.000       5.000       5.000       5.000       5.000       5.000       5.000       5.000       5.000       5.000    
        0.000       0.000       0.000       0.000       0.000       0.000       0.000       0.000       0.000       0.000    
        0.000       0.000       0.000       0.000       0.000       0.000       0.000       0.000       0.000       0.000    
        0.000       0.000       0.000       0.000       0.000       0.000       0.000       0.000       0.000       0.000    
        0.000       0.000       0.000       0.000       0.000       0.000    
 118    5.000       5.000       5.000       5.000       0.000       5.000       5.000       5.000       5.000       5.000    
        5.000       5.000       5.000       5.000       5.000       5.000       5.000       5.000       5.000       5.000    
        5.000       5.000       5.000       5.000       5.000       5.000       5.000       5.000       5.000       5.000    
        5.000       5.000       5.000       5.000       5.000       5.000       5.000       5.000       5.000       5.000    
        0.000       0.000       0.000       0.000       0.000       0.000       0.000       0.000       0.000       0.000    
        0.000       0.000       0.000       0.000       0.000       0.000       0.000       0.000       0.000       0.000    
        0.000       0.000       0.000       0.000       0.000       0.000       0.000       0.000       0.000       0.000    
        0.000       0.000       0.000       0.000       0.000       0.000    
 119    5.000       5.000       5.000       5.000       0.000       5.000       5.000       5.000       5.000       5.000    
        5.000       5.000       5.000       5.000       5.000       5.000       5.000       5.000       5.000       5.000    
        5.000       5.000       5.000       5.000       5.000       5.000       5.000       5.000       5.000       5.000    
        5.000       5.000       5.000       5.000       5.000       5.000       5.000       5.000       5.000       5.000    
        5.000       0.000       0.000       0.000       0.000       0.000       0.000       0.000       0.000       0.000    
        0.000       0.000       0.000       0.000       0.000       0.000       0.000       0.000       0.000       0.000    
        0.000       0.000       0.000       0.000       0.000       0.000       0.000       0.000       0.000       0.000    
        0.000       0.000       0.000       0.000       0.000       0.000    
 120    5.000       5.000       5.000       0.000       5.000       5.000       5.000       5.000       5.000       5.000    
        5.000       5.000       5.000       5.000       5.000       5.000       5.000       5.000       5.000       5.000    
        5.000       5.000       5.000       5.000       5.000       5.000       5.000       5.000       5.000       5.000    
        5.000       5.000       5.000       5.000       5.000       5.000       5.000       5.000       5.000       5.000    
        5.000       0.000       0.000       0.000       0.000       0.000       0.000       0.000       0.000       0.000    
        0.000       0.000       0.000       0.000       0.000       0.000       0.000       0.000       0.000       0.000    
        0.000       0.000       0.000       0.000       0.000       0.000       0.000       0.000       0.000       0.000    
        0.000       0.000       0.000       0.000       0.000       0.000    
 121    5.000       5.000       5.000       0.000       5.000       5.000       5.000       5.000       5.000       5.000    
        5.000       5.000       5.000       5.000       5.000       5.000       5.000       5.000       5.000       5.000    
        5.000       5.000       5.000       5.000       5.000       5.000       5.000       5.000       5.000       5.000    
        5.000       5.000       5.000       5.000       5.000       5.000       5.000       5.000       5.000       5.000    
        5.000       5.000       0.000       0.000       0.000       0.000       0.000       0.000       0.000       0.000    
        0.000       0.000       0.000       0.000       0.000       0.000       0.000       0.000       0.000       0.000    
        0.000       0.000       0.000       0.000       0.000       0.000       0.000       0.000       0.000       0.000    
        0.000       0.000       0.000       0.000       0.000       0.000    
 122    5.000       5.000       5.000       0.000       5.000       5.000       5.000       5.000       5.000       5.000    
        5.000       5.000       5.000       5.000       5.000       5.000       5.000       5.000       5.000       5.000    
        5.000       5.000       5.000       5.000       5.000       5.000       5.000       5.000       5.000       5.000    
        5.000       5.000       5.000       5.000       5.000       5.000       5.000       5.000       5.000       5.000    
        5.000       5.000       5.000       0.000       0.000       0.000       0.000       0.000       0.000       0.000    
        0.000       0.000       0.000       0.000       0.000       0.000       0.000       0.000       0.000       0.000    
        0.000       0.000       0.000       0.000       0.000       0.000       0.000       0.000       0.000       0.000    
        0.000       0.000       0.000       0.000       0.000       0.000    
 123    5.000       5.000       0.000       5.000       5.000       5.000       5.000       5.000       5.000       5.000    
        5.000       5.000       5.000       5.000       5.000       5.000       5.000       5.000       5.000       5.000    
        5.000       5.000       5.000       5.000       5.000       5.000       5.000       5.000       5.000       5.000    
        5.000       5.000       5.000       5.000       5.000       5.000       5.000       5.000       5.000       5.000    
        5.000       5.000       5.000       0.000       0.000       0.000       0.000       0.000       0.000       0.000    
        0.000       0.000       0.000       0.000       0.000       0.000       0.000       0.000       0.000       0.000    
        0.000       0.000       0.000       0.000       0.000       0.000       0.000       0.000       0.000       0.000    
        0.000       0.000       0.000       0.000       0.000       0.000    
 124    5.000       5.000       0.000       5.000       5.000       5.000       5.000       5.000       5.000       5.000    
        5.000       5.000       5.000       5.000       5.000       5.000       5.000       5.000       5.000       5.000    
        5.000       5.000       5.000       5.000       5.000       5.000       5.000       5.000       5.000       5.000    
        5.000       5.000       5.000       5.000       5.000       5.000       5.000       5.000       5.000       5.000    
        5.000       5.000       5.000       5.000       0.000       0.000       0.000       0.000       0.000       0.000    
        0.000       0.000       0.000       0.000       0.000       0.000       0.000       0.000       0.000       0.000    
        0.000       0.000       0.000       0.000       0.000       0.000       0.000       0.000       0.000       0.000    
        0.000       0.000       0.000       0.000       0.000       0.000    
 125    5.000       5.000       5.000       5.000       5.000       5.000       5.000       5.000       5.000       5.000    
        5.000       5.000       5.000       5.000       5.000       5.000       5.000       5.000       5.000       5.000    
        5.000       5.000       5.000       5.000       5.000       5.000       5.000       5.000       5.000       5.000    
        5.000       5.000       5.000       5.000       5.000       5.000       5.000       5.000       5.000       5.000    
        5.000       5.000       5.000       5.000       5.000       0.000       0.000       0.000       0.000       0.000    
        0.000       0.000       0.000       0.000       0.000       0.000       0.000       0.000       0.000       0.000    
        0.000       0.000       0.000       0.000       0.000       0.000       0.000       0.000       0.000       0.000    
        0.000       0.000       0.000       0.000       0.000       0.000    
 126    5.000       5.000       5.000       5.000       5.000       5.000       5.000       5.000       5.000       5.000    
        5.000       5.000       5.000       5.000       5.000       5.000       5.000       5.000       5.000       5.000    
        5.000       5.000       5.000       5.000       5.000       5.000       5.000       5.000       5.000       5.000    
        5.000       5.000       5.000       5.000       5.000       5.000       5.000       5.000       5.000       5.000    
        5.000       5.000       5.000       5.000       5.000       0.000       0.000       0.000       0.000       0.000    
        0.000       0.000       0.000       0.000       0.000       0.000       0.000       0.000       0.000       0.000    
        0.000       0.000       0.000       0.000       0.000       0.000       0.000       0.000       0.000       0.000    
        0.000       0.000       0.000       0.000       0.000       0.000    
 127    5.000       5.000       5.000       5.000       5.000       5.000       5.000       5.000       5.000       5.000    
        5.000       5.000       5.000       5.000       5.000       5.000       5.000       5.000       5.000       5.000    
        5.000       5.000       5.000       5.000       5.000       5.000       5.000       5.000       5.000       5.000    
        5.000       5.000       5.000       5.000       5.000       5.000       5.000       5.000       5.000       5.000    
        5.000       5.000       5.000       5.000       5.000       5.000       0.000       0.000       0.000       0.000    
        0.000       0.000       0.000       0.000       0.000       0.000       0.000       0.000       0.000       0.000    
        0.000       0.000       0.000       0.000       0.000       0.000       0.000       0.000       0.000       0.000    
        0.000       0.000       0.000       0.000       0.000       0.000    
 128    5.000       5.000       5.000       5.000       5.000       5.000       5.000       5.000       5.000       5.000    
        5.000       5.000       5.000       5.000       5.000       5.000       5.000       5.000       5.000       5.000    
        5.000       5.000       5.000       5.000       5.000       5.000       5.000       5.000       5.000       5.000    
        5.000       5.000       5.000       5.000       5.000       5.000       5.000       5.000       5.000       5.000    
        5.000       5.000       5.000       5.000       5.000       5.000       5.000       0.000       0.000       0.000    
        0.000       0.000       0.000       0.000       0.000       0.000       0.000       0.000       0.000       0.000    
        0.000       0.000       0.000       0.000       0.000       0.000       0.000       0.000       0.000       0.000    
        0.000       0.000       0.000       0.000       0.000       0.000    
 129    5.000       5.000       5.000       5.000       5.000       5.000       5.000       5.000       5.000       5.000    
        5.000       5.000       5.000       5.000       5.000       5.000       5.000       5.000       5.000       5.000    
        5.000       5.000       5.000       5.000       5.000       5.000       5.000       5.000       5.000       5.000    
        5.000       5.000       5.000       5.000       5.000       5.000       5.000       5.000       5.000       5.000    
        5.000       5.000       5.000       5.000       5.000       5.000       5.000       5.000       0.000       0.000    
        0.000       0.000       0.000       0.000       0.000       0.000       0.000       0.000       0.000       0.000    
        0.000       0.000       0.000       0.000       0.000       0.000       0.000       0.000       0.000       0.000    
        0.000       0.000       0.000       0.000       0.000       0.000    
 130    5.000       5.000       5.000       5.000       5.000       5.000       5.000       5.000       5.000       5.000    
        5.000       5.000       5.000       5.000       5.000       5.000       5.000       5.000       5.000       5.000    
        5.000       5.000       5.000       5.000       5.000       5.000       5.000       5.000       5.000       5.000    
        5.000       5.000       5.000       5.000       5.000       5.000       5.000       5.000       5.000       5.000    
        5.000       5.000       5.000       5.000       5.000       5.000       5.000       5.000       5.000       0.000    
        0.000       0.000       0.000       0.000       0.000       0.000       0.000       0.000       0.000       0.000    
        0.000       0.000       0.000       0.000       0.000       0.000       0.000       0.000       0.000       0.000    
        0.000       0.000       0.000       0.000       0.000       0.000    
 131    5.000       5.000       5.000       5.000       5.000       5.000       5.000       5.000       5.000       5.000    
        5.000       0.000       0.000       0.000       0.000       0.000       0.000       5.000       5.000       5.000    
        5.000       5.000       5.000       5.000       5.000       5.000       5.000       5.000       5.000       5.000    
        5.000       5.000       5.000       5.000       5.000       5.000       5.000       5.000       5.000       5.000    
        0.000       0.000       0.000       0.000       0.000       5.000       5.000       5.000       5.000       0.000    
        0.000       0.000       0.000       0.000       0.000       0.000       0.000       0.000       0.000       0.000    
        0.000       0.000       0.000       0.000       0.000       0.000       0.000       0.000       0.000       0.000    
        0.000       0.000       0.000       0.000       0.000       0.000    

   HORIZ. ANI. (COL./ROW) =   1.00000     FOR LAYER   1



                VERTICAL HYD. COND. FOR LAYER   1
 READING ON UNIT 5134 WITH FORMAT: (FREE)              

            1           2           3           4           5           6           7           8           9          10
           11          12          13          14          15          16          17          18          19          20
           21          22          23          24          25          26          27          28          29          30
           31          32          33          34          35          36          37          38          39          40
           41          42          43          44          45          46          47          48          49          50
           51          52          53          54          55          56          57          58          59          60
           61          62          63          64          65          66          67          68          69          70
           71          72          73          74          75          76
 ........................................................................................................................
   1    0.000       0.000       0.000       0.000       0.000       0.000       0.000       0.000       0.000       0.000    
        0.000       0.000       0.000       0.000       0.000       0.000       0.000       0.000       0.000       0.000    
        0.000       0.000       0.000       0.000       0.000       0.000       0.000       0.000       0.000       0.000    
        0.000       0.000       0.000       0.000       0.000       0.000       0.000       0.000       0.000       0.000    
        0.000       0.000       0.000       0.000       0.000       0.000       0.000       0.000       0.000       0.000    
        0.000      1.0000E-04  1.0000E-04   0.000       0.000       0.000       0.000       0.000       0.000       0.000    
        0.000       0.000       0.000       0.000       0.000       0.000       0.000       0.000       0.000       0.000    
        0.000      1.0000E-04  1.0000E-04  1.0000E-04   0.000      1.0000E-04
   2    0.000       0.000       0.000       0.000       0.000       0.000       0.000       0.000       0.000       0.000    
        0.000       0.000       0.000       0.000       0.000       0.000       0.000       0.000       0.000       0.000    
        0.000       0.000       0.000       0.000       0.000       0.000       0.000       0.000       0.000       0.000    
        0.000       0.000       0.000       0.000       0.000       0.000       0.000       0.000       0.000       0.000    
        0.000       0.000       0.000       0.000       0.000       0.000       0.000       0.000       0.000       0.000    
        0.000      1.0000E-04  1.0000E-04  1.0000E-04   0.000       0.000       0.000       0.000       0.000       0.000    
        0.000       0.000       0.000       0.000       0.000       0.000       0.000      1.0000E-04  1.0000E-04  1.0000E-04
       1.0000E-04  1.0000E-04  1.0000E-04  1.0000E-04  1.0000E-04  1.0000E-04
   3    0.000       0.000       0.000       0.000       0.000       0.000       0.000       0.000       0.000       0.000    
        0.000       0.000       0.000       0.000       0.000       0.000       0.000       0.000       0.000       0.000    
        0.000       0.000       0.000       0.000       0.000       0.000       0.000       0.000       0.000       0.000    
        0.000       0.000       0.000       0.000       0.000       0.000       0.000       0.000       0.000       0.000    
        0.000       0.000       0.000       0.000       0.000       0.000       0.000       0.000       0.000       0.000    
        0.000      1.0000E-04  1.0000E-04  1.0000E-04   0.000       0.000       0.000       0.000       0.000       0.000    
        0.000       0.000      1.0000E-04  1.0000E-04  1.0000E-04  1.0000E-04  1.0000E-04  1.0000E-04  1.0000E-04  1.0000E-04
       1.0000E-04  1.0000E-04  1.0000E-04  1.0000E-04  1.0000E-04  1.0000E-04
   4    0.000       0.000       0.000       0.000       0.000       0.000       0.000       0.000       0.000       0.000    
        0.000       0.000       0.000       0.000       0.000       0.000       0.000       0.000       0.000       0.000    
        0.000       0.000       0.000       0.000       0.000       0.000       0.000       0.000       0.000       0.000    
        0.000       0.000       0.000       0.000       0.000       0.000       0.000       0.000       0.000       0.000    
        0.000       0.000       0.000       0.000       0.000       0.000       0.000       0.000       0.000       0.000    
       1.0000E-04  1.0000E-04  1.0000E-04  1.0000E-04  1.0000E-04   0.000       0.000      1.0000E-04  1.0000E-04  1.0000E-04
       1.0000E-04  1.0000E-04  1.0000E-04  1.0000E-04  1.0000E-04  1.0000E-04  1.0000E-04  1.0000E-04  1.0000E-04  1.0000E-04
       1.0000E-04  1.0000E-04  1.0000E-04  1.0000E-04  1.0000E-04  1.0000E-04
   5    0.000       0.000       0.000       0.000       0.000       0.000       0.000       0.000       0.000       0.000    
        0.000       0.000       0.000       0.000       0.000       0.000       0.000       0.000       0.000       0.000    
        0.000       0.000       0.000       0.000       0.000       0.000       0.000       0.000       0.000       0.000    
        0.000       0.000       0.000       0.000       0.000       0.000       0.000       0.000       0.000       0.000    
        0.000       0.000       0.000       0.000       0.000       0.000       0.000       0.000       0.000       0.000    
       1.0000E-04  1.0000E-04  1.0000E-04  1.0000E-04  1.0000E-04  1.0000E-04  1.0000E-04  1.0000E-04  1.0000E-04  1.0000E-04
       1.0000E-04  1.0000E-04  1.0000E-04  1.0000E-04  1.0000E-04  1.0000E-04  1.0000E-04  1.0000E-04  1.0000E-04  1.0000E-04
       1.0000E-04  1.0000E-04  1.0000E-04  1.0000E-04  1.0000E-04   0.000    
   6    0.000       0.000       0.000       0.000       0.000       0.000       0.000       0.000       0.000       0.000    
        0.000       0.000       0.000       0.000       0.000       0.000       0.000       0.000       0.000       0.000    
        0.000       0.000       0.000       0.000       0.000       0.000       0.000       0.000       0.000       0.000    
        0.000       0.000       0.000       0.000       0.000       0.000       0.000       0.000       0.000       0.000    
        0.000       0.000       0.000       0.000       0.000       0.000       0.000       0.000       0.000      1.0000E-04
       1.0000E-04  1.0000E-04  1.0000E-04  1.0000E-04  1.0000E-04  1.0000E-04  1.0000E-04  1.0000E-04  1.0000E-04  1.0000E-04
       1.0000E-04  1.0000E-04  1.0000E-04  1.0000E-04  1.0000E-04  1.0000E-04  1.0000E-04  1.0000E-04  1.0000E-04  1.0000E-04
       1.0000E-04  1.0000E-04  1.0000E-04  1.0000E-04  1.0000E-04   0.000    
   7    0.000       0.000       0.000       0.000       0.000       0.000       0.000       0.000       0.000       0.000    
        0.000       0.000       0.000       0.000       0.000       0.000       0.000       0.000       0.000       0.000    
        0.000       0.000       0.000       0.000       0.000       0.000       0.000       0.000       0.000       0.000    
        0.000       0.000       0.000       0.000       0.000       0.000       0.000       0.000       0.000       0.000    
        0.000       0.000       0.000       0.000       0.000       0.000       0.000       0.000       0.000      1.0000E-04
       1.0000E-04  1.0000E-04  1.0000E-04  1.0000E-04  1.0000E-04  1.0000E-04  1.0000E-04  1.0000E-04  1.0000E-04  1.0000E-04
       1.0000E-04  1.0000E-04  1.0000E-04  1.0000E-04  1.0000E-04  1.0000E-04  1.0000E-04  1.0000E-04  1.0000E-04  1.0000E-04
       1.0000E-04  1.0000E-04  1.0000E-04  1.0000E-04  1.0000E-04   0.000    
   8    0.000       0.000       0.000       0.000       0.000       0.000       0.000       0.000       0.000       0.000    
        0.000       0.000       0.000       0.000       0.000       0.000       0.000       0.000       0.000       0.000    
        0.000       0.000       0.000       0.000       0.000       0.000       0.000       0.000       0.000       0.000    
        0.000       0.000       0.000       0.000       0.000       0.000       0.000       0.000       0.000       0.000    
        0.000       0.000       0.000       0.000       0.000       0.000       0.000       0.000      1.0000E-04  1.0000E-04
       1.0000E-04  1.0000E-04  1.0000E-04  1.0000E-04  1.0000E-04  1.0000E-04  1.0000E-04  1.0000E-04  1.0000E-04  1.0000E-04
       1.0000E-04  1.0000E-04  1.0000E-04  1.0000E-04  1.0000E-04  1.0000E-04  1.0000E-04  1.0000E-04  1.0000E-04  1.0000E-04
       1.0000E-04  1.0000E-04  1.0000E-04  1.0000E-04  1.0000E-04  1.0000E-04
   9    0.000       0.000       0.000       0.000       0.000       0.000       0.000       0.000       0.000       0.000    
        0.000       0.000       0.000       0.000       0.000       0.000       0.000       0.000       0.000       0.000    
        0.000       0.000       0.000       0.000       0.000       0.000       0.000       0.000       0.000       0.000    
        0.000       0.000       0.000       0.000       0.000       0.000       0.000       0.000       0.000       0.000    
        0.000       0.000       0.000       0.000       0.000       0.000       0.000      1.0000E-04  1.0000E-04  1.0000E-04
       1.0000E-04  1.0000E-04  1.0000E-04  1.0000E-04  1.0000E-04  1.0000E-04  1.0000E-04  1.0000E-04  1.0000E-04  1.0000E-04
       1.0000E-04  1.0000E-04  1.0000E-04  1.0000E-04  1.0000E-04  1.0000E-04  1.0000E-04  1.0000E-04  1.0000E-04  1.0000E-04
       1.0000E-04  1.0000E-04  1.0000E-04  1.0000E-04  1.0000E-04  1.0000E-04
  10    0.000       0.000       0.000       0.000       0.000       0.000       0.000       0.000       0.000       0.000    
        0.000       0.000       0.000       0.000       0.000       0.000       0.000       0.000       0.000       0.000    
        0.000       0.000       0.000       0.000       0.000       0.000       0.000       0.000       0.000       0.000    
        0.000       0.000       0.000       0.000       0.000       0.000       0.000       0.000       0.000       0.000    
        0.000       0.000       0.000       0.000       0.000       0.000      1.0000E-04  1.0000E-04  1.0000E-04  1.0000E-04
       1.0000E-04  1.0000E-04  1.0000E-04  1.0000E-04  1.0000E-04  1.0000E-04  1.0000E-04  1.0000E-04  1.0000E-04  1.0000E-04
       1.0000E-04  1.0000E-04  1.0000E-04  1.0000E-04  1.0000E-04  1.0000E-04  1.0000E-04  1.0000E-04  1.0000E-04  1.0000E-04
       1.0000E-04  1.0000E-04  1.0000E-04  1.0000E-04  1.0000E-04  1.0000E-04
  11    0.000       0.000       0.000       0.000       0.000       0.000       0.000       0.000       0.000       0.000    
        0.000       0.000       0.000       0.000       0.000       0.000       0.000       0.000       0.000       0.000    
        0.000       0.000       0.000       0.000       0.000       0.000       0.000       0.000       0.000       0.000    
        0.000       0.000       0.000       0.000       0.000       0.000       0.000       0.000       0.000       0.000    
        0.000       0.000       0.000       0.000       0.000      1.0000E-04  1.0000E-04  1.0000E-04  1.0000E-04  1.0000E-04
       1.0000E-04  1.0000E-04  1.0000E-04  1.0000E-04  1.0000E-04  1.0000E-04  1.0000E-04  1.0000E-04  1.0000E-04  1.0000E-04
       1.0000E-04  1.0000E-04  1.0000E-04  1.0000E-04  1.0000E-04  1.0000E-04  1.0000E-04  1.0000E-04  1.0000E-04  1.0000E-04
       1.0000E-04  1.0000E-04  1.0000E-04  1.0000E-04  1.0000E-04   0.000    
  12    0.000       0.000       0.000       0.000       0.000       0.000       0.000       0.000       0.000       0.000    
        0.000       0.000       0.000       0.000       0.000       0.000       0.000       0.000       0.000       0.000    
        0.000       0.000       0.000       0.000       0.000       0.000       0.000       0.000       0.000       0.000    
        0.000       0.000       0.000       0.000       0.000       0.000       0.000       0.000       0.000       0.000    
        0.000       0.000       0.000       0.000      1.0000E-04  1.0000E-04  1.0000E-04  1.0000E-04  1.0000E-04  1.0000E-04
       1.0000E-04  1.0000E-04  1.0000E-04  1.0000E-04  1.0000E-04  1.0000E-04  1.0000E-04  1.0000E-04  1.0000E-04  1.0000E-04
       1.0000E-04  1.0000E-04  1.0000E-04  1.0000E-04  1.0000E-04  1.0000E-04  1.0000E-04  1.0000E-04  1.0000E-04  1.0000E-04
       1.0000E-04  1.0000E-04  1.0000E-04  1.0000E-04  1.0000E-04   0.000    
  13    0.000       0.000       0.000       0.000       0.000       0.000       0.000       0.000       0.000       0.000    
        0.000       0.000       0.000       0.000       0.000       0.000       0.000       0.000       0.000       0.000    
        0.000       0.000       0.000       0.000       0.000       0.000       0.000       0.000       0.000       0.000    
        0.000       0.000       0.000       0.000       0.000       0.000       0.000       0.000       0.000       0.000    
        0.000       0.000       0.000      1.0000E-04  1.0000E-04  1.0000E-04  1.0000E-04  1.0000E-04  1.0000E-04  1.0000E-04
       1.0000E-04  1.0000E-04  1.0000E-04  1.0000E-04  1.0000E-04  1.0000E-04  1.0000E-04  1.0000E-04  1.0000E-04  1.0000E-04
       1.0000E-04  1.0000E-04  1.0000E-04  1.0000E-04  1.0000E-04  1.0000E-04  1.0000E-04  1.0000E-04  1.0000E-04  1.0000E-04
       1.0000E-04  1.0000E-04  1.0000E-04  1.0000E-04  1.0000E-04   0.000    
  14    0.000       0.000       0.000       0.000       0.000       0.000       0.000       0.000       0.000       0.000    
        0.000       0.000       0.000       0.000       0.000       0.000       0.000       0.000       0.000       0.000    
        0.000       0.000       0.000       0.000       0.000       0.000       0.000       0.000       0.000       0.000    
        0.000       0.000       0.000       0.000       0.000       0.000       0.000       0.000       0.000       0.000    
        0.000       0.000      1.0000E-04  1.0000E-04  1.0000E-04  1.0000E-04  1.0000E-04  1.0000E-04  1.0000E-04  1.0000E-04
       1.0000E-04  1.0000E-04  1.0000E-04  1.0000E-04  1.0000E-04  1.0000E-04  1.0000E-04  1.0000E-04  1.0000E-04  1.0000E-04
       1.0000E-04  1.0000E-04  1.0000E-04  1.0000E-04  1.0000E-04  1.0000E-04  1.0000E-04  1.0000E-04  1.0000E-04  1.0000E-04
       1.0000E-04  1.0000E-04  1.0000E-04  1.0000E-04  1.0000E-04  1.0000E-04
  15    0.000       0.000       0.000       0.000       0.000       0.000       0.000       0.000       0.000       0.000    
        0.000       0.000       0.000       0.000       0.000       0.000       0.000       0.000       0.000       0.000    
        0.000       0.000       0.000       0.000       0.000       0.000       0.000       0.000       0.000       0.000    
        0.000       0.000       0.000       0.000       0.000       0.000       0.000       0.000       0.000       0.000    
        0.000      1.0000E-04  1.0000E-04  1.0000E-04  1.0000E-04  1.0000E-04  1.0000E-04  1.0000E-04  1.0000E-04  1.0000E-04
       1.0000E-04  1.0000E-04  1.0000E-04  1.0000E-04  1.0000E-04  1.0000E-04  1.0000E-04  1.0000E-04  1.0000E-04  1.0000E-04
       1.0000E-04  1.0000E-04  1.0000E-04  1.0000E-04  1.0000E-04  1.0000E-04  1.0000E-04  1.0000E-04  1.0000E-04  1.0000E-04
       1.0000E-04  1.0000E-04  1.0000E-04  1.0000E-04  1.0000E-04  1.0000E-04
  16    0.000       0.000       0.000       0.000       0.000       0.000       0.000       0.000       0.000       0.000    
        0.000       0.000       0.000       0.000       0.000       0.000       0.000       0.000       0.000       0.000    
        0.000       0.000       0.000       0.000       0.000       0.000       0.000       0.000       0.000       0.000    
        0.000       0.000       0.000       0.000       0.000       0.000       0.000       0.000       0.000       0.000    
       1.0000E-04  1.0000E-04  1.0000E-04  1.0000E-04  1.0000E-04  1.0000E-04  1.0000E-04  1.0000E-04  1.0000E-04  1.0000E-04
       1.0000E-04  1.0000E-04  1.0000E-04  1.0000E-04  1.0000E-04  1.0000E-04  1.0000E-04  1.0000E-04  1.0000E-04  1.0000E-04
       1.0000E-04  1.0000E-04  1.0000E-04  1.0000E-04  1.0000E-04  1.0000E-04  1.0000E-04  1.0000E-04  1.0000E-04  1.0000E-04
       1.0000E-04  1.0000E-04  1.0000E-04  1.0000E-04  1.0000E-04   0.000    
  17    0.000       0.000       0.000       0.000       0.000       0.000       0.000       0.000       0.000       0.000    
        0.000       0.000       0.000       0.000       0.000       0.000       0.000       0.000       0.000       0.000    
        0.000       0.000       0.000       0.000       0.000       0.000       0.000       0.000       0.000       0.000    
        0.000       0.000       0.000       0.000       0.000       0.000       0.000       0.000       0.000      1.0000E-04
       1.0000E-04  1.0000E-04  1.0000E-04  1.0000E-04  1.0000E-04  1.0000E-04  1.0000E-04  1.0000E-04  1.0000E-04  1.0000E-04
       1.0000E-04  1.0000E-04  1.0000E-04  1.0000E-04  1.0000E-04  1.0000E-04  1.0000E-04  1.0000E-04  1.0000E-04  1.0000E-04
       1.0000E-04  1.0000E-04  1.0000E-04  1.0000E-04  1.0000E-04  1.0000E-04  1.0000E-04  1.0000E-04  1.0000E-04  1.0000E-04
       1.0000E-04  1.0000E-04  1.0000E-04  1.0000E-04  1.0000E-04  1.0000E-04
  18    0.000       0.000       0.000       0.000       0.000       0.000       0.000       0.000       0.000       0.000    
        0.000       0.000       0.000       0.000       0.000       0.000       0.000       0.000       0.000       0.000    
        0.000       0.000       0.000       0.000       0.000       0.000       0.000       0.000       0.000       0.000    
        0.000       0.000       0.000       0.000       0.000       0.000       0.000       0.000      1.0000E-04  1.0000E-04
       1.0000E-04  1.0000E-04  1.0000E-04  1.0000E-04  1.0000E-04  1.0000E-04  1.0000E-04  1.0000E-04  1.0000E-04  1.0000E-04
       1.0000E-04  1.0000E-04  1.0000E-04  1.0000E-04  1.0000E-04  1.0000E-04  1.0000E-04  1.0000E-04  1.0000E-04  1.0000E-04
       1.0000E-04  1.0000E-04  1.0000E-04  1.0000E-04  1.0000E-04  1.0000E-04  1.0000E-04  1.0000E-04  1.0000E-04  1.0000E-04
       1.0000E-04  1.0000E-04  1.0000E-04  1.0000E-04  1.0000E-04  1.0000E-04
  19    0.000       0.000       0.000       0.000       0.000       0.000       0.000       0.000       0.000       0.000    
        0.000       0.000       0.000       0.000       0.000       0.000       0.000       0.000       0.000       0.000    
        0.000       0.000       0.000       0.000       0.000       0.000       0.000       0.000       0.000       0.000    
        0.000       0.000       0.000       0.000       0.000       0.000       0.000      1.0000E-04  1.0000E-04  1.0000E-04
       1.0000E-04  1.0000E-04  1.0000E-04  1.0000E-04  1.0000E-04  1.0000E-04  1.0000E-04  1.0000E-04  1.0000E-04  1.0000E-04
       1.0000E-04  1.0000E-04  1.0000E-04  1.0000E-04  1.0000E-04  1.0000E-04  1.0000E-04  1.0000E-04  1.0000E-04  1.0000E-04
       1.0000E-04  1.0000E-04  1.0000E-04  1.0000E-04  1.0000E-04  1.0000E-04  1.0000E-04  1.0000E-04  1.0000E-04  1.0000E-04
       1.0000E-04  1.0000E-04  1.0000E-04  1.0000E-04  1.0000E-04  1.0000E-04
  20    0.000       0.000       0.000       0.000       0.000       0.000       0.000       0.000       0.000       0.000    
        0.000       0.000       0.000       0.000       0.000       0.000       0.000       0.000       0.000       0.000    
        0.000       0.000       0.000       0.000       0.000       0.000       0.000       0.000       0.000       0.000    
        0.000       0.000       0.000       0.000       0.000       0.000      1.0000E-04  1.0000E-04  1.0000E-04  1.0000E-04
       1.0000E-04  1.0000E-04  1.0000E-04  1.0000E-04  1.0000E-04  1.0000E-04  1.0000E-04  1.0000E-04  1.0000E-04  1.0000E-04
       1.0000E-04  1.0000E-04  1.0000E-04  1.0000E-04  1.0000E-04  1.0000E-04  1.0000E-04  1.0000E-04  1.0000E-04  1.0000E-04
       1.0000E-04  1.0000E-04  1.0000E-04  1.0000E-04  1.0000E-04  1.0000E-04  1.0000E-04  1.0000E-04  1.0000E-04  1.0000E-04
       1.0000E-04  1.0000E-04  1.0000E-04  1.0000E-04  1.0000E-04  1.0000E-04
  21   1.0000E-04  1.0000E-04   0.000       0.000       0.000       0.000       0.000       0.000       0.000       0.000    
        0.000       0.000       0.000       0.000       0.000       0.000       0.000       0.000       0.000       0.000    
        0.000       0.000       0.000       0.000       0.000       0.000       0.000       0.000       0.000       0.000    
        0.000       0.000       0.000       0.000       0.000      1.0000E-04  1.0000E-04  1.0000E-04  1.0000E-04  1.0000E-04
       1.0000E-04  1.0000E-04  1.0000E-04  1.0000E-04  1.0000E-04  1.0000E-04  1.0000E-04  1.0000E-04  1.0000E-04  1.0000E-04
       1.0000E-04  1.0000E-04  1.0000E-04  1.0000E-04  1.0000E-04  1.0000E-04  1.0000E-04  1.0000E-04  1.0000E-04  1.0000E-04
       1.0000E-04  1.0000E-04  1.0000E-04  1.0000E-04  1.0000E-04  1.0000E-04  1.0000E-04  1.0000E-04  1.0000E-04  1.0000E-04
       1.0000E-04  1.0000E-04  1.0000E-04  1.0000E-04  1.0000E-04  1.0000E-04
  22   1.0000E-04  1.0000E-04  1.0000E-04  1.0000E-04  1.0000E-04   0.000       0.000       0.000       0.000       0.000    
        0.000       0.000       0.000       0.000       0.000       0.000       0.000       0.000       0.000       0.000    
        0.000       0.000       0.000       0.000       0.000       0.000       0.000       0.000       0.000       0.000    
        0.000       0.000      1.0000E-04  1.0000E-04  1.0000E-04  1.0000E-04  1.0000E-04  1.0000E-04  1.0000E-04  1.0000E-04
       1.0000E-04  1.0000E-04  1.0000E-04  1.0000E-04  1.0000E-04  1.0000E-04  1.0000E-04  1.0000E-04  1.0000E-04  1.0000E-04
       1.0000E-04  1.0000E-04  1.0000E-04  1.0000E-04  1.0000E-04  1.0000E-04  1.0000E-04  1.0000E-04  1.0000E-04  1.0000E-04
       1.0000E-04  1.0000E-04  1.0000E-04  1.0000E-04  1.0000E-04  1.0000E-04  1.0000E-04  1.0000E-04  1.0000E-04  1.0000E-04
       1.0000E-04  1.0000E-04  1.0000E-04  1.0000E-04  1.0000E-04  1.0000E-04
  23   1.0000E-04  1.0000E-04  1.0000E-04  1.0000E-04  1.0000E-04  1.0000E-04  1.0000E-04   0.000       0.000       0.000    
        0.000       0.000       0.000       0.000       0.000       0.000       0.000       0.000       0.000       0.000    
        0.000       0.000       0.000       0.000       0.000       0.000       0.000       0.000       0.000       0.000    
        0.000       0.000      1.0000E-04  1.0000E-04  1.0000E-04  1.0000E-04  1.0000E-04  1.0000E-04  1.0000E-04  1.0000E-04
       1.0000E-04  1.0000E-04  1.0000E-04  1.0000E-04  1.0000E-04  1.0000E-04  1.0000E-04  1.0000E-04  1.0000E-04  1.0000E-04
       1.0000E-04  1.0000E-04  1.0000E-04  1.0000E-04  1.0000E-04  1.0000E-04  1.0000E-04  1.0000E-04  1.0000E-04  1.0000E-04
       1.0000E-04  1.0000E-04  1.0000E-04  1.0000E-04  1.0000E-04  1.0000E-04  1.0000E-04  1.0000E-04  1.0000E-04  1.0000E-04
       1.0000E-04  1.0000E-04  1.0000E-04  1.0000E-04  1.0000E-04  1.0000E-04
  24   1.0000E-04  1.0000E-04  1.0000E-04  1.0000E-04  1.0000E-04  1.0000E-04  1.0000E-04  1.0000E-04  1.0000E-04  1.0000E-04
        0.000       0.000       0.000       0.000       0.000       0.000       0.000       0.000       0.000       0.000    
        0.000       0.000       0.000       0.000       0.000       0.000       0.000       0.000       0.000       0.000    
        0.000       0.000      1.0000E-04  1.0000E-04  1.0000E-04  1.0000E-04  1.0000E-04  1.0000E-04  1.0000E-04  1.0000E-04
       1.0000E-04  1.0000E-04  1.0000E-04  1.0000E-04  1.0000E-04  1.0000E-04  1.0000E-04  1.0000E-04  1.0000E-04  1.0000E-04
       1.0000E-04  1.0000E-04  1.0000E-04  1.0000E-04  1.0000E-04  1.0000E-04  1.0000E-04  1.0000E-04  1.0000E-04  1.0000E-04
       1.0000E-04  1.0000E-04  1.0000E-04  1.0000E-04  1.0000E-04  1.0000E-04  1.0000E-04  1.0000E-04  1.0000E-04  1.0000E-04
       1.0000E-04  1.0000E-04  1.0000E-04  1.0000E-04  1.0000E-04  1.0000E-04
  25   1.0000E-04  1.0000E-04  1.0000E-04  1.0000E-04  1.0000E-04  1.0000E-04  1.0000E-04  1.0000E-04  1.0000E-04  1.0000E-04
       1.0000E-04  1.0000E-04  1.0000E-04   0.000       0.000       0.000       0.000       0.000       0.000       0.000    
        0.000       0.000       0.000       0.000       0.000       0.000       0.000       0.000       0.000      1.0000E-04
       1.0000E-04  1.0000E-04  1.0000E-04  1.0000E-04  1.0000E-04  1.0000E-04  1.0000E-04  1.0000E-04  1.0000E-04  1.0000E-04
       1.0000E-04  1.0000E-04  1.0000E-04  1.0000E-04  1.0000E-04  1.0000E-04  1.0000E-04  1.0000E-04  1.0000E-04  1.0000E-04
       1.0000E-04  1.0000E-04  1.0000E-04  1.0000E-04  1.0000E-04  1.0000E-04  1.0000E-04  1.0000E-04  1.0000E-04  1.0000E-04
       1.0000E-04  1.0000E-04  1.0000E-04  1.0000E-04  1.0000E-04  1.0000E-04  1.0000E-04  1.0000E-04  1.0000E-04  1.0000E-04
       1.0000E-04  1.0000E-04  1.0000E-04  1.0000E-04  1.0000E-04  1.0000E-04
  26   1.0000E-04  1.0000E-04  1.0000E-04  1.0000E-04  1.0000E-04  1.0000E-04  1.0000E-04  1.0000E-04  1.0000E-04  1.0000E-04
       1.0000E-04  1.0000E-04  1.0000E-04  1.0000E-04  1.0000E-04  1.0000E-04  1.0000E-04   0.000       0.000       0.000    
        0.000       0.000       0.000       0.000       0.000       0.000      1.0000E-04  1.0000E-04  1.0000E-04  1.0000E-04
       1.0000E-04  1.0000E-04  1.0000E-04  1.0000E-04  1.0000E-04  1.0000E-04  1.0000E-04  1.0000E-04  1.0000E-04  1.0000E-04
       1.0000E-04  1.0000E-04  1.0000E-04  1.0000E-04  1.0000E-04  1.0000E-04  1.0000E-04  1.0000E-04  1.0000E-04  1.0000E-04
       1.0000E-04  1.0000E-04  1.0000E-04  1.0000E-04  1.0000E-04  1.0000E-04  1.0000E-04  1.0000E-04  1.0000E-04  1.0000E-04
       1.0000E-04  1.0000E-04  1.0000E-04  1.0000E-04  1.0000E-04  1.0000E-04  1.0000E-04  1.0000E-04  1.0000E-04  1.0000E-04
       1.0000E-04  1.0000E-04  1.0000E-04  1.0000E-04  1.0000E-04  1.0000E-04
  27   1.0000E-04  1.0000E-04  1.0000E-04  1.0000E-04  1.0000E-04  1.0000E-04  1.0000E-04  1.0000E-04  1.0000E-04  1.0000E-04
       1.0000E-04  1.0000E-04  1.0000E-04  1.0000E-04  1.0000E-04  1.0000E-04  1.0000E-04  1.0000E-04  1.0000E-04  1.0000E-04
       1.0000E-04  1.0000E-04  1.0000E-04  1.0000E-04  1.0000E-04  1.0000E-04  1.0000E-04  1.0000E-04  1.0000E-04  1.0000E-04
       1.0000E-04  1.0000E-04  1.0000E-04  1.0000E-04  1.0000E-04  1.0000E-04  1.0000E-04  1.0000E-04  1.0000E-04  1.0000E-04
       1.0000E-04  1.0000E-04  1.0000E-04  1.0000E-04  1.0000E-04  1.0000E-04  1.0000E-04  1.0000E-04  1.0000E-04  1.0000E-04
       1.0000E-04  1.0000E-04  1.0000E-04  1.0000E-04  1.0000E-04  1.0000E-04  1.0000E-04  1.0000E-04  1.0000E-04  1.0000E-04
       1.0000E-04  1.0000E-04  1.0000E-04  1.0000E-04  1.0000E-04  1.0000E-04  1.0000E-04  1.0000E-04  1.0000E-04  1.0000E-04
       1.0000E-04  1.0000E-04  1.0000E-04  1.0000E-04  1.0000E-04   0.000    
  28   1.0000E-04  1.0000E-04  1.0000E-04  1.0000E-04  1.0000E-04  1.0000E-04  1.0000E-04  1.0000E-04  1.0000E-04  1.0000E-04
       1.0000E-04  1.0000E-04  1.0000E-04  1.0000E-04  1.0000E-04  1.0000E-04  1.0000E-04  1.0000E-04  1.0000E-04  1.0000E-04
       1.0000E-04  1.0000E-04  1.0000E-04  1.0000E-04  1.0000E-04  1.0000E-04  1.0000E-04  1.0000E-04  1.0000E-04  1.0000E-04
       1.0000E-04  1.0000E-04  1.0000E-04  1.0000E-04  1.0000E-04  1.0000E-04  1.0000E-04  1.0000E-04  1.0000E-04  1.0000E-04
       1.0000E-04  1.0000E-04  1.0000E-04  1.0000E-04  1.0000E-04  1.0000E-04  1.0000E-04  1.0000E-04  1.0000E-04  1.0000E-04
       1.0000E-04  1.0000E-04  1.0000E-04  1.0000E-04  1.0000E-04  1.0000E-04  1.0000E-04  1.0000E-04  1.0000E-04  1.0000E-04
       1.0000E-04  1.0000E-04  1.0000E-04  1.0000E-04  1.0000E-04  1.0000E-04  1.0000E-04  1.0000E-04  1.0000E-04  1.0000E-04
       1.0000E-04  1.0000E-04  1.0000E-04  1.0000E-04  1.0000E-04   0.000    
  29   1.0000E-04  1.0000E-04  1.0000E-04  1.0000E-04  1.0000E-04  1.0000E-04  1.0000E-04  1.0000E-04  1.0000E-04  1.0000E-04
       1.0000E-04  1.0000E-04  1.0000E-04  1.0000E-04  1.0000E-04  1.0000E-04  1.0000E-04  1.0000E-04  1.0000E-04  1.0000E-04
       1.0000E-04  1.0000E-04  1.0000E-04  1.0000E-04  1.0000E-04  1.0000E-04  1.0000E-04  1.0000E-04  1.0000E-04  1.0000E-04
       1.0000E-04  1.0000E-04  1.0000E-04  1.0000E-04  1.0000E-04  1.0000E-04  1.0000E-04  1.0000E-04  1.0000E-04  1.0000E-04
       1.0000E-04  1.0000E-04  1.0000E-04  1.0000E-04  1.0000E-04  1.0000E-04  1.0000E-04  1.0000E-04  1.0000E-04  1.0000E-04
       1.0000E-04  1.0000E-04  1.0000E-04  1.0000E-04  1.0000E-04  1.0000E-04  1.0000E-04  1.0000E-04  1.0000E-04  1.0000E-04
       1.0000E-04  1.0000E-04  1.0000E-04  1.0000E-04  1.0000E-04  1.0000E-04  1.0000E-04  1.0000E-04  1.0000E-04  1.0000E-04
       1.0000E-04  1.0000E-04  1.0000E-04  1.0000E-04  1.0000E-04   0.000    
  30   1.0000E-04  1.0000E-04  1.0000E-04  1.0000E-04  1.0000E-04  1.0000E-04  1.0000E-04  1.0000E-04  1.0000E-04  1.0000E-04
       1.0000E-04  1.0000E-04  1.0000E-04  1.0000E-04  1.0000E-04  1.0000E-04  1.0000E-04  1.0000E-04  1.0000E-04  1.0000E-04
       1.0000E-04  1.0000E-04  1.0000E-04  1.0000E-04  1.0000E-04  1.0000E-04  1.0000E-04  1.0000E-04  1.0000E-04  1.0000E-04
       1.0000E-04  1.0000E-04  1.0000E-04  1.0000E-04  1.0000E-04  1.0000E-04  1.0000E-04  1.0000E-04  1.0000E-04  1.0000E-04
       1.0000E-04  1.0000E-04  1.0000E-04  1.0000E-04  1.0000E-04  1.0000E-04  1.0000E-04  1.0000E-04  1.0000E-04  1.0000E-04
       1.0000E-04  1.0000E-04  1.0000E-04  1.0000E-04  1.0000E-04  1.0000E-04  1.0000E-04  1.0000E-04  1.0000E-04  1.0000E-04
       1.0000E-04  1.0000E-04  1.0000E-04  1.0000E-04  1.0000E-04  1.0000E-04  1.0000E-04  1.0000E-04  1.0000E-04  1.0000E-04
       1.0000E-04  1.0000E-04  1.0000E-04  1.0000E-04  1.0000E-04   0.000    
  31   1.0000E-04  1.0000E-04  1.0000E-04  1.0000E-04  1.0000E-04  1.0000E-04  1.0000E-04  1.0000E-04  1.0000E-04  1.0000E-04
       1.0000E-04  1.0000E-04  1.0000E-04  1.0000E-04  1.0000E-04  1.0000E-04  1.0000E-04  1.0000E-04  1.0000E-04  1.0000E-04
       1.0000E-04  1.0000E-04  1.0000E-04  1.0000E-04  1.0000E-04  1.0000E-04  1.0000E-04  1.0000E-04  1.0000E-04  1.0000E-04
       1.0000E-04  1.0000E-04  1.0000E-04  1.0000E-04  1.0000E-04  1.0000E-04  1.0000E-04  1.0000E-04  1.0000E-04  1.0000E-04
       1.0000E-04  1.0000E-04  1.0000E-04  1.0000E-04  1.0000E-04  1.0000E-04  1.0000E-04  1.0000E-04  1.0000E-04  1.0000E-04
       1.0000E-04  1.0000E-04  1.0000E-04  1.0000E-04  1.0000E-04  1.0000E-04  1.0000E-04  1.0000E-04  1.0000E-04  1.0000E-04
       1.0000E-04  1.0000E-04  1.0000E-04  1.0000E-04  1.0000E-04  1.0000E-04  1.0000E-04  1.0000E-04  1.0000E-04  1.0000E-04
       1.0000E-04  1.0000E-04  1.0000E-04  1.0000E-04   0.000       0.000    
  32    0.000      1.0000E-04  1.0000E-04  1.0000E-04  1.0000E-04  1.0000E-04  1.0000E-04  1.0000E-04  1.0000E-04  1.0000E-04
       1.0000E-04  1.0000E-04  1.0000E-04  1.0000E-04  1.0000E-04  1.0000E-04  1.0000E-04  1.0000E-04  1.0000E-04  1.0000E-04
       1.0000E-04  1.0000E-04  1.0000E-04  1.0000E-04  1.0000E-04  1.0000E-04  1.0000E-04  1.0000E-04  1.0000E-04  1.0000E-04
       1.0000E-04  1.0000E-04  1.0000E-04  1.0000E-04  1.0000E-04  1.0000E-04  1.0000E-04  1.0000E-04  1.0000E-04  1.0000E-04
       1.0000E-04  1.0000E-04  1.0000E-04  1.0000E-04  1.0000E-04  1.0000E-04  1.0000E-04  1.0000E-04  1.0000E-04  1.0000E-04
       1.0000E-04  1.0000E-04  1.0000E-04  1.0000E-04  1.0000E-04  1.0000E-04  1.0000E-04  1.0000E-04  1.0000E-04  1.0000E-04
       1.0000E-04  1.0000E-04  1.0000E-04  1.0000E-04  1.0000E-04  1.0000E-04  1.0000E-04  1.0000E-04  1.0000E-04  1.0000E-04
       1.0000E-04  1.0000E-04  1.0000E-04  1.0000E-04   0.000       0.000    
  33    0.000       0.000       0.000      1.0000E-04  1.0000E-04  1.0000E-04  1.0000E-04  1.0000E-04  1.0000E-04  1.0000E-04
       1.0000E-04  1.0000E-04  1.0000E-04  1.0000E-04  1.0000E-04  1.0000E-04  1.0000E-04  1.0000E-04  1.0000E-04  1.0000E-04
       1.0000E-04  1.0000E-04  1.0000E-04  1.0000E-04  1.0000E-04  1.0000E-04  1.0000E-04  1.0000E-04  1.0000E-04  1.0000E-04
       1.0000E-04  1.0000E-04  1.0000E-04  1.0000E-04  1.0000E-04  1.0000E-04  1.0000E-04  1.0000E-04  1.0000E-04  1.0000E-04
       1.0000E-04  1.0000E-04  1.0000E-04  1.0000E-04  1.0000E-04  1.0000E-04  1.0000E-04  1.0000E-04  1.0000E-04  1.0000E-04
       1.0000E-04  1.0000E-04  1.0000E-04  1.0000E-04  1.0000E-04  1.0000E-04  1.0000E-04  1.0000E-04  1.0000E-04  1.0000E-04
       1.0000E-04  1.0000E-04  1.0000E-04  1.0000E-04  1.0000E-04  1.0000E-04  1.0000E-04  1.0000E-04  1.0000E-04  1.0000E-04
       1.0000E-04  1.0000E-04  1.0000E-04   0.000       0.000       0.000    
  34    0.000       0.000       0.000       0.000       0.000      1.0000E-04  1.0000E-04  1.0000E-04  1.0000E-04  1.0000E-04
       1.0000E-04  1.0000E-04  1.0000E-04  1.0000E-04  1.0000E-04  1.0000E-04  1.0000E-04  1.0000E-04  1.0000E-04  1.0000E-04
       1.0000E-04  1.0000E-04  1.0000E-04  1.0000E-04  1.0000E-04  1.0000E-04  1.0000E-04  1.0000E-04  1.0000E-04  1.0000E-04
       1.0000E-04  1.0000E-04  1.0000E-04  1.0000E-04  1.0000E-04  1.0000E-04  1.0000E-04  1.0000E-04  1.0000E-04  1.0000E-04
       1.0000E-04  1.0000E-04  1.0000E-04  1.0000E-04  1.0000E-04  1.0000E-04  1.0000E-04  1.0000E-04  1.0000E-04  1.0000E-04
       1.0000E-04  1.0000E-04  1.0000E-04  1.0000E-04  1.0000E-04  1.0000E-04  1.0000E-04  1.0000E-04  1.0000E-04  1.0000E-04
       1.0000E-04  1.0000E-04  1.0000E-04  1.0000E-04  1.0000E-04  1.0000E-04  1.0000E-04  1.0000E-04  1.0000E-04  1.0000E-04
       1.0000E-04  1.0000E-04  1.0000E-04   0.000       0.000       0.000    
  35    0.000       0.000       0.000       0.000       0.000       0.000      1.0000E-04  1.0000E-04  1.0000E-04  1.0000E-04
       1.0000E-04  1.0000E-04  1.0000E-04  1.0000E-04  1.0000E-04  1.0000E-04  1.0000E-04  1.0000E-04  1.0000E-04  1.0000E-04
       1.0000E-04  1.0000E-04  1.0000E-04  1.0000E-04  1.0000E-04  1.0000E-04  1.0000E-04  1.0000E-04  1.0000E-04  1.0000E-04
       1.0000E-04  1.0000E-04  1.0000E-04  1.0000E-04  1.0000E-04  1.0000E-04  1.0000E-04  1.0000E-04  1.0000E-04  1.0000E-04
       1.0000E-04  1.0000E-04  1.0000E-04  1.0000E-04  1.0000E-04  1.0000E-04  1.0000E-04  1.0000E-04  1.0000E-04  1.0000E-04
       1.0000E-04  1.0000E-04  1.0000E-04  1.0000E-04  1.0000E-04  1.0000E-04  1.0000E-04  1.0000E-04  1.0000E-04  1.0000E-04
       1.0000E-04  1.0000E-04  1.0000E-04  1.0000E-04  1.0000E-04  1.0000E-04  1.0000E-04  1.0000E-04  1.0000E-04  1.0000E-04
       1.0000E-04  1.0000E-04   0.000       0.000       0.000       0.000    
  36    0.000       0.000       0.000       0.000       0.000       0.000       0.000       0.000      1.0000E-04  1.0000E-04
       1.0000E-04  1.0000E-04  1.0000E-04  1.0000E-04  1.0000E-04  1.0000E-04  1.0000E-04  1.0000E-04  1.0000E-04  1.0000E-04
       1.0000E-04  1.0000E-04  1.0000E-04  1.0000E-04  1.0000E-04  1.0000E-04  1.0000E-04  1.0000E-04  1.0000E-04  1.0000E-04
       1.0000E-04  1.0000E-04  1.0000E-04  1.0000E-04  1.0000E-04  1.0000E-04  1.0000E-04  1.0000E-04  1.0000E-04  1.0000E-04
       1.0000E-04  1.0000E-04  1.0000E-04  1.0000E-04  1.0000E-04  1.0000E-04  1.0000E-04  1.0000E-04  1.0000E-04  1.0000E-04
       1.0000E-04  1.0000E-04  1.0000E-04  1.0000E-04  1.0000E-04  1.0000E-04  1.0000E-04  1.0000E-04  1.0000E-04  1.0000E-04
       1.0000E-04  1.0000E-04  1.0000E-04  1.0000E-04  1.0000E-04  1.0000E-04  1.0000E-04  1.0000E-04  1.0000E-04  1.0000E-04
       1.0000E-04  1.0000E-04   0.000       0.000       0.000       0.000    
  37   1.0000E-04  1.0000E-04  1.0000E-04   0.000       0.000       0.000       0.000       0.000       0.000       0.000    
       1.0000E-04  1.0000E-04  1.0000E-04  1.0000E-04  1.0000E-04  1.0000E-04  1.0000E-04  1.0000E-04  1.0000E-04  1.0000E-04
       1.0000E-04  1.0000E-04  1.0000E-04  1.0000E-04  1.0000E-04  1.0000E-04  1.0000E-04  1.0000E-04  1.0000E-04  1.0000E-04
       1.0000E-04  1.0000E-04  1.0000E-04  1.0000E-04  1.0000E-04  1.0000E-04  1.0000E-04  1.0000E-04  1.0000E-04  1.0000E-04
       1.0000E-04  1.0000E-04  1.0000E-04  1.0000E-04  1.0000E-04  1.0000E-04  1.0000E-04  1.0000E-04  1.0000E-04  1.0000E-04
       1.0000E-04  1.0000E-04  1.0000E-04  1.0000E-04  1.0000E-04  1.0000E-04  1.0000E-04  1.0000E-04  1.0000E-04  1.0000E-04
       1.0000E-04  1.0000E-04  1.0000E-04  1.0000E-04  1.0000E-04  1.0000E-04  1.0000E-04  1.0000E-04  1.0000E-04  1.0000E-04
       1.0000E-04  1.0000E-04   0.000       0.000       0.000       0.000    
  38   1.0000E-04  1.0000E-04  1.0000E-04  1.0000E-04  1.0000E-04  1.0000E-04  1.0000E-04   0.000       0.000       0.000    
        0.000      1.0000E-04  1.0000E-04  1.0000E-04  1.0000E-04  1.0000E-04  1.0000E-04  1.0000E-04  1.0000E-04  1.0000E-04
       1.0000E-04  1.0000E-04  1.0000E-04  1.0000E-04  1.0000E-04  1.0000E-04  1.0000E-04  1.0000E-04  1.0000E-04  1.0000E-04
       1.0000E-04  1.0000E-04  1.0000E-04  1.0000E-04  1.0000E-04  1.0000E-04  1.0000E-04  1.0000E-04  1.0000E-04  1.0000E-04
       1.0000E-04  1.0000E-04  1.0000E-04  1.0000E-04  1.0000E-04  1.0000E-04  1.0000E-04  1.0000E-04  1.0000E-04  1.0000E-04
       1.0000E-04  1.0000E-04  1.0000E-04  1.0000E-04  1.0000E-04  1.0000E-04  1.0000E-04  1.0000E-04  1.0000E-04  1.0000E-04
       1.0000E-04  1.0000E-04  1.0000E-04  1.0000E-04  1.0000E-04  1.0000E-04  1.0000E-04  1.0000E-04  1.0000E-04   0.000    
       1.0000E-04  1.0000E-04   0.000       0.000       0.000       0.000    
  39   1.0000E-04  1.0000E-04  1.0000E-04  1.0000E-04  1.0000E-04  1.0000E-04  1.0000E-04  1.0000E-04  1.0000E-04  1.0000E-04
       1.0000E-04   0.000       0.000      1.0000E-04  1.0000E-04  1.0000E-04  1.0000E-04  1.0000E-04  1.0000E-04  1.0000E-04
       1.0000E-04  1.0000E-04  1.0000E-04  1.0000E-04  1.0000E-04  1.0000E-04  1.0000E-04  1.0000E-04  1.0000E-04  1.0000E-04
       1.0000E-04  1.0000E-04  1.0000E-04  1.0000E-04  1.0000E-04  1.0000E-04  1.0000E-04  1.0000E-04  1.0000E-04  1.0000E-04
       1.0000E-04  1.0000E-04  1.0000E-04  1.0000E-04  1.0000E-04  1.0000E-04  1.0000E-04  1.0000E-04  1.0000E-04  1.0000E-04
       1.0000E-04  1.0000E-04  1.0000E-04  1.0000E-04  1.0000E-04  1.0000E-04  1.0000E-04  1.0000E-04  1.0000E-04  1.0000E-04
       1.0000E-04  1.0000E-04  1.0000E-04  1.0000E-04  1.0000E-04  1.0000E-04  1.0000E-04  1.0000E-04  1.0000E-04  1.0000E-04
       1.0000E-04   0.000       0.000       0.000       0.000       0.000    
  40   1.0000E-04  1.0000E-04  1.0000E-04  1.0000E-04  1.0000E-04  1.0000E-04  1.0000E-04  1.0000E-04  1.0000E-04  1.0000E-04
       1.0000E-04  1.0000E-04  1.0000E-04  1.0000E-04  1.0000E-04  1.0000E-04  1.0000E-04  1.0000E-04  1.0000E-04  1.0000E-04
       1.0000E-04  1.0000E-04  1.0000E-04  1.0000E-04  1.0000E-04  1.0000E-04  1.0000E-04  1.0000E-04  1.0000E-04  1.0000E-04
       1.0000E-04  1.0000E-04  1.0000E-04  1.0000E-04  1.0000E-04  1.0000E-04  1.0000E-04  1.0000E-04  1.0000E-04  1.0000E-04
       1.0000E-04  1.0000E-04  1.0000E-04  1.0000E-04  1.0000E-04  1.0000E-04  1.0000E-04  1.0000E-04  1.0000E-04  1.0000E-04
       1.0000E-04  1.0000E-04  1.0000E-04  1.0000E-04  1.0000E-04  1.0000E-04  1.0000E-04  1.0000E-04  1.0000E-04  1.0000E-04
       1.0000E-04  1.0000E-04  1.0000E-04  1.0000E-04  1.0000E-04  1.0000E-04  1.0000E-04  1.0000E-04  1.0000E-04  1.0000E-04
       1.0000E-04   0.000       0.000       0.000       0.000       0.000    
  41   1.0000E-04  1.0000E-04  1.0000E-04  1.0000E-04  1.0000E-04  1.0000E-04  1.0000E-04  1.0000E-04  1.0000E-04  1.0000E-04
       1.0000E-04  1.0000E-04  1.0000E-04  1.0000E-04  1.0000E-04  1.0000E-04  1.0000E-04  1.0000E-04  1.0000E-04  1.0000E-04
       1.0000E-04  1.0000E-04  1.0000E-04  1.0000E-04  1.0000E-04  1.0000E-04  1.0000E-04  1.0000E-04  1.0000E-04  1.0000E-04
       1.0000E-04  1.0000E-04  1.0000E-04  1.0000E-04  1.0000E-04  1.0000E-04  1.0000E-04  1.0000E-04  1.0000E-04  1.0000E-04
       1.0000E-04  1.0000E-04  1.0000E-04  1.0000E-04  1.0000E-04  1.0000E-04  1.0000E-04  1.0000E-04  1.0000E-04  1.0000E-04
       1.0000E-04  1.0000E-04  1.0000E-04  1.0000E-04  1.0000E-04  1.0000E-04  1.0000E-04  1.0000E-04  1.0000E-04  1.0000E-04
       1.0000E-04  1.0000E-04  1.0000E-04  1.0000E-04  1.0000E-04  1.0000E-04  1.0000E-04  1.0000E-04  1.0000E-04  1.0000E-04
       1.0000E-04  1.0000E-04   0.000       0.000       0.000       0.000    
  42   1.0000E-04  1.0000E-04  1.0000E-04  1.0000E-04  1.0000E-04  1.0000E-04  1.0000E-04  1.0000E-04  1.0000E-04  1.0000E-04
       1.0000E-04  1.0000E-04  1.0000E-04  1.0000E-04  1.0000E-04  1.0000E-04  1.0000E-04  1.0000E-04  1.0000E-04  1.0000E-04
       1.0000E-04  1.0000E-04  1.0000E-04  1.0000E-04  1.0000E-04  1.0000E-04  1.0000E-04  1.0000E-04  1.0000E-04  1.0000E-04
       1.0000E-04  1.0000E-04  1.0000E-04  1.0000E-04  1.0000E-04  1.0000E-04  1.0000E-04  1.0000E-04  1.0000E-04  1.0000E-04
       1.0000E-04  1.0000E-04  1.0000E-04  1.0000E-04  1.0000E-04  1.0000E-04  1.0000E-04  1.0000E-04  1.0000E-04  1.0000E-04
       1.0000E-04  1.0000E-04  1.0000E-04  1.0000E-04  1.0000E-04  1.0000E-04  1.0000E-04  1.0000E-04  1.0000E-04  1.0000E-04
       1.0000E-04  1.0000E-04  1.0000E-04  1.0000E-04  1.0000E-04  1.0000E-04  1.0000E-04  1.0000E-04  1.0000E-04  1.0000E-04
       1.0000E-04  1.0000E-04   0.000       0.000       0.000       0.000    
  43   1.0000E-04  1.0000E-04  1.0000E-04  1.0000E-04  1.0000E-04  1.0000E-04  1.0000E-04  1.0000E-04  1.0000E-04  1.0000E-04
       1.0000E-04  1.0000E-04  1.0000E-04  1.0000E-04  1.0000E-04  1.0000E-04  1.0000E-04  1.0000E-04  1.0000E-04  1.0000E-04
       1.0000E-04  1.0000E-04  1.0000E-04  1.0000E-04  1.0000E-04  1.0000E-04  1.0000E-04  1.0000E-04  1.0000E-04  1.0000E-04
       1.0000E-04  1.0000E-04  1.0000E-04  1.0000E-04  1.0000E-04  1.0000E-04  1.0000E-04  1.0000E-04  1.0000E-04  1.0000E-04
       1.0000E-04  1.0000E-04  1.0000E-04  1.0000E-04  1.0000E-04  1.0000E-04  1.0000E-04  1.0000E-04  1.0000E-04  1.0000E-04
       1.0000E-04  1.0000E-04  1.0000E-04  1.0000E-04  1.0000E-04  1.0000E-04  1.0000E-04  1.0000E-04  1.0000E-04  1.0000E-04
       1.0000E-04  1.0000E-04  1.0000E-04  1.0000E-04  1.0000E-04  1.0000E-04  1.0000E-04  1.0000E-04  1.0000E-04  1.0000E-04
       1.0000E-04  1.0000E-04  1.0000E-04   0.000       0.000       0.000    
  44   1.0000E-04  1.0000E-04  1.0000E-04  1.0000E-04  1.0000E-04  1.0000E-04  1.0000E-04  1.0000E-04  1.0000E-04  1.0000E-04
       1.0000E-04  1.0000E-04  1.0000E-04  1.0000E-04  1.0000E-04  1.0000E-04  1.0000E-04  1.0000E-04  1.0000E-04  1.0000E-04
       1.0000E-04  1.0000E-04  1.0000E-04  1.0000E-04  1.0000E-04  1.0000E-04  1.0000E-04  1.0000E-04  1.0000E-04  1.0000E-04
       1.0000E-04  1.0000E-04  1.0000E-04  1.0000E-04  1.0000E-04  1.0000E-04  1.0000E-04  1.0000E-04  1.0000E-04  1.0000E-04
       1.0000E-04  1.0000E-04  1.0000E-04  1.0000E-04  1.0000E-04  1.0000E-04  1.0000E-04  1.0000E-04  1.0000E-04  1.0000E-04
       1.0000E-04  1.0000E-04  1.0000E-04  1.0000E-04  1.0000E-04  1.0000E-04  1.0000E-04  1.0000E-04  1.0000E-04  1.0000E-04
       1.0000E-04  1.0000E-04  1.0000E-04  1.0000E-04  1.0000E-04  1.0000E-04  1.0000E-04  1.0000E-04  1.0000E-04  1.0000E-04
       1.0000E-04  1.0000E-04  1.0000E-04  1.0000E-04   0.000       0.000    
  45   1.0000E-04  1.0000E-04  1.0000E-04  1.0000E-04  1.0000E-04  1.0000E-04  1.0000E-04  1.0000E-04  1.0000E-04  1.0000E-04
       1.0000E-04  1.0000E-04  1.0000E-04  1.0000E-04  1.0000E-04  1.0000E-04  1.0000E-04  1.0000E-04  1.0000E-04  1.0000E-04
       1.0000E-04  1.0000E-04  1.0000E-04  1.0000E-04  1.0000E-04  1.0000E-04  1.0000E-04  1.0000E-04  1.0000E-04  1.0000E-04
       1.0000E-04  1.0000E-04  1.0000E-04  1.0000E-04  1.0000E-04  1.0000E-04  1.0000E-04  1.0000E-04  1.0000E-04  1.0000E-04
       1.0000E-04  1.0000E-04  1.0000E-04  1.0000E-04  1.0000E-04  1.0000E-04  1.0000E-04  1.0000E-04  1.0000E-04  1.0000E-04
       1.0000E-04  1.0000E-04  1.0000E-04  1.0000E-04  1.0000E-04  1.0000E-04  1.0000E-04  1.0000E-04  1.0000E-04  1.0000E-04
       1.0000E-04  1.0000E-04  1.0000E-04  1.0000E-04  1.0000E-04  1.0000E-04  1.0000E-04  1.0000E-04  1.0000E-04  1.0000E-04
       1.0000E-04  1.0000E-04  1.0000E-04  1.0000E-04  1.0000E-04   0.000    
  46   1.0000E-04  1.0000E-04  1.0000E-04  1.0000E-04  1.0000E-04  1.0000E-04  1.0000E-04  1.0000E-04  1.0000E-04  1.0000E-04
       1.0000E-04  1.0000E-04  1.0000E-04  1.0000E-04  1.0000E-04  1.0000E-04  1.0000E-04  1.0000E-04  1.0000E-04  1.0000E-04
       1.0000E-04  1.0000E-04  1.0000E-04  1.0000E-04  1.0000E-04  1.0000E-04  1.0000E-04  1.0000E-04  1.0000E-04  1.0000E-04
       1.0000E-04  1.0000E-04  1.0000E-04  1.0000E-04  1.0000E-04  1.0000E-04  1.0000E-04  1.0000E-04  1.0000E-04  1.0000E-04
       1.0000E-04  1.0000E-04  1.0000E-04  1.0000E-04  1.0000E-04  1.0000E-04  1.0000E-04  1.0000E-04  1.0000E-04  1.0000E-04
       1.0000E-04  1.0000E-04  1.0000E-04  1.0000E-04  1.0000E-04  1.0000E-04  1.0000E-04  1.0000E-04  1.0000E-04  1.0000E-04
       1.0000E-04  1.0000E-04  1.0000E-04  1.0000E-04  1.0000E-04  1.0000E-04  1.0000E-04  1.0000E-04  1.0000E-04  1.0000E-04
       1.0000E-04  1.0000E-04  1.0000E-04  1.0000E-04  1.0000E-04  1.0000E-04
  47   1.0000E-04  1.0000E-04  1.0000E-04  1.0000E-04  1.0000E-04  1.0000E-04  1.0000E-04  1.0000E-04  1.0000E-04  1.0000E-04
       1.0000E-04  1.0000E-04  1.0000E-04  1.0000E-04  1.0000E-04  1.0000E-04  1.0000E-04  1.0000E-04  1.0000E-04  1.0000E-04
       1.0000E-04  1.0000E-04  1.0000E-04  1.0000E-04  1.0000E-04  1.0000E-04  1.0000E-04  1.0000E-04  1.0000E-04  1.0000E-04
       1.0000E-04  1.0000E-04  1.0000E-04  1.0000E-04  1.0000E-04  1.0000E-04  1.0000E-04  1.0000E-04  1.0000E-04  1.0000E-04
       1.0000E-04  1.0000E-04  1.0000E-04  1.0000E-04  1.0000E-04  1.0000E-04  1.0000E-04  1.0000E-04  1.0000E-04  1.0000E-04
       1.0000E-04  1.0000E-04  1.0000E-04  1.0000E-04  1.0000E-04  1.0000E-04  1.0000E-04  1.0000E-04  1.0000E-04  1.0000E-04
       1.0000E-04  1.0000E-04  1.0000E-04  1.0000E-04  1.0000E-04  1.0000E-04  1.0000E-04  1.0000E-04  1.0000E-04  1.0000E-04
       1.0000E-04  1.0000E-04  1.0000E-04  1.0000E-04  1.0000E-04  1.0000E-04
  48   1.0000E-04  1.0000E-04  1.0000E-04  1.0000E-04  1.0000E-04  1.0000E-04  1.0000E-04  1.0000E-04  1.0000E-04  1.0000E-04
       1.0000E-04  1.0000E-04  1.0000E-04  1.0000E-04  1.0000E-04  1.0000E-04  1.0000E-04  1.0000E-04  1.0000E-04  1.0000E-04
       1.0000E-04  1.0000E-04  1.0000E-04  1.0000E-04  1.0000E-04  1.0000E-04  1.0000E-04  1.0000E-04  1.0000E-04  1.0000E-04
       1.0000E-04  1.0000E-04  1.0000E-04  1.0000E-04  1.0000E-04  1.0000E-04  1.0000E-04  1.0000E-04  1.0000E-04  1.0000E-04
       1.0000E-04  1.0000E-04  1.0000E-04  1.0000E-04  1.0000E-04  1.0000E-04  1.0000E-04  1.0000E-04  1.0000E-04  1.0000E-04
       1.0000E-04  1.0000E-04  1.0000E-04  1.0000E-04  1.0000E-04  1.0000E-04  1.0000E-04  1.0000E-04  1.0000E-04  1.0000E-04
       1.0000E-04  1.0000E-04  1.0000E-04  1.0000E-04  1.0000E-04  1.0000E-04  1.0000E-04  1.0000E-04  1.0000E-04  1.0000E-04
       1.0000E-04  1.0000E-04  1.0000E-04  1.0000E-04  1.0000E-04  1.0000E-04
  49   1.0000E-04  1.0000E-04  1.0000E-04  1.0000E-04  1.0000E-04  1.0000E-04  1.0000E-04  1.0000E-04  1.0000E-04  1.0000E-04
       1.0000E-04  1.0000E-04  1.0000E-04  1.0000E-04  1.0000E-04  1.0000E-04  1.0000E-04  1.0000E-04  1.0000E-04  1.0000E-04
       1.0000E-04  1.0000E-04  1.0000E-04  1.0000E-04  1.0000E-04  1.0000E-04  1.0000E-04  1.0000E-04  1.0000E-04  1.0000E-04
       1.0000E-04  1.0000E-04  1.0000E-04  1.0000E-04  1.0000E-04  1.0000E-04  1.0000E-04  1.0000E-04  1.0000E-04  1.0000E-04
       1.0000E-04  1.0000E-04  1.0000E-04  1.0000E-04  1.0000E-04  1.0000E-04  1.0000E-04  1.0000E-04  1.0000E-04  1.0000E-04
       1.0000E-04  1.0000E-04  1.0000E-04  1.0000E-04  1.0000E-04  1.0000E-04  1.0000E-04  1.0000E-04  1.0000E-04  1.0000E-04
       1.0000E-04  1.0000E-04  1.0000E-04  1.0000E-04  1.0000E-04  1.0000E-04  1.0000E-04  1.0000E-04  1.0000E-04  1.0000E-04
       1.0000E-04  1.0000E-04  1.0000E-04  1.0000E-04  1.0000E-04  1.0000E-04
  50   1.0000E-04  1.0000E-04  1.0000E-04  1.0000E-04  1.0000E-04  1.0000E-04  1.0000E-04  1.0000E-04  1.0000E-04  1.0000E-04
       1.0000E-04  1.0000E-04  1.0000E-04  1.0000E-04  1.0000E-04  1.0000E-04  1.0000E-04  1.0000E-04  1.0000E-04  1.0000E-04
       1.0000E-04  1.0000E-04  1.0000E-04  1.0000E-04  1.0000E-04  1.0000E-04  1.0000E-04  1.0000E-04  1.0000E-04  1.0000E-04
       1.0000E-04  1.0000E-04  1.0000E-04  1.0000E-04  1.0000E-04  1.0000E-04  1.0000E-04  1.0000E-04  1.0000E-04  1.0000E-04
       1.0000E-04  1.0000E-04  1.0000E-04  1.0000E-04  1.0000E-04  1.0000E-04  1.0000E-04  1.0000E-04  1.0000E-04  1.0000E-04
       1.0000E-04  1.0000E-04  1.0000E-04  1.0000E-04  1.0000E-04  1.0000E-04  1.0000E-04  1.0000E-04  1.0000E-04  1.0000E-04
       1.0000E-04  1.0000E-04  1.0000E-04  1.0000E-04  1.0000E-04  1.0000E-04  1.0000E-04  1.0000E-04  1.0000E-04  1.0000E-04
       1.0000E-04  1.0000E-04  1.0000E-04  1.0000E-04  1.0000E-04  1.0000E-04
  51   1.0000E-04  1.0000E-04  1.0000E-04  1.0000E-04  1.0000E-04  1.0000E-04  1.0000E-04  1.0000E-04  1.0000E-04  1.0000E-04
       1.0000E-04  1.0000E-04  1.0000E-04  1.0000E-04  1.0000E-04  1.0000E-04  1.0000E-04  1.0000E-04  1.0000E-04  1.0000E-04
       1.0000E-04  1.0000E-04  1.0000E-04  1.0000E-04  1.0000E-04  1.0000E-04  1.0000E-04  1.0000E-04  1.0000E-04  1.0000E-04
       1.0000E-04  1.0000E-04  1.0000E-04  1.0000E-04  1.0000E-04  1.0000E-04  1.0000E-04  1.0000E-04  1.0000E-04  1.0000E-04
       1.0000E-04  1.0000E-04  1.0000E-04  1.0000E-04  1.0000E-04  1.0000E-04  1.0000E-04  1.0000E-04  1.0000E-04  1.0000E-04
       1.0000E-04  1.0000E-04  1.0000E-04  1.0000E-04  1.0000E-04  1.0000E-04  1.0000E-04  1.0000E-04  1.0000E-04  1.0000E-04
       1.0000E-04  1.0000E-04  1.0000E-04  1.0000E-04  1.0000E-04  1.0000E-04  1.0000E-04  1.0000E-04  1.0000E-04  1.0000E-04
       1.0000E-04  1.0000E-04  1.0000E-04  1.0000E-04  1.0000E-04  1.0000E-04
  52   1.0000E-04  1.0000E-04  1.0000E-04  1.0000E-04  1.0000E-04  1.0000E-04  1.0000E-04  1.0000E-04  1.0000E-04  1.0000E-04
       1.0000E-04  1.0000E-04  1.0000E-04  1.0000E-04  1.0000E-04  1.0000E-04  1.0000E-04  1.0000E-04  1.0000E-04  1.0000E-04
       1.0000E-04  1.0000E-04  1.0000E-04  1.0000E-04  1.0000E-04  1.0000E-04  1.0000E-04  1.0000E-04  1.0000E-04  1.0000E-04
       1.0000E-04  1.0000E-04  1.0000E-04  1.0000E-04  1.0000E-04  1.0000E-04  1.0000E-04  1.0000E-04  1.0000E-04  1.0000E-04
       1.0000E-04  1.0000E-04  1.0000E-04  1.0000E-04  1.0000E-04  1.0000E-04  1.0000E-04  1.0000E-04  1.0000E-04  1.0000E-04
       1.0000E-04  1.0000E-04  1.0000E-04  1.0000E-04  1.0000E-04  1.0000E-04  1.0000E-04  1.0000E-04  1.0000E-04  1.0000E-04
       1.0000E-04  1.0000E-04  1.0000E-04  1.0000E-04  1.0000E-04  1.0000E-04  1.0000E-04  1.0000E-04  1.0000E-04  1.0000E-04
       1.0000E-04  1.0000E-04  1.0000E-04  1.0000E-04  1.0000E-04  1.0000E-04
  53   1.0000E-04  1.0000E-04  1.0000E-04  1.0000E-04  1.0000E-04  1.0000E-04  1.0000E-04  1.0000E-04  1.0000E-04  1.0000E-04
       1.0000E-04  1.0000E-04  1.0000E-04  1.0000E-04  1.0000E-04  1.0000E-04  1.0000E-04  1.0000E-04  1.0000E-04  1.0000E-04
       1.0000E-04  1.0000E-04  1.0000E-04  1.0000E-04  1.0000E-04  1.0000E-04  1.0000E-04  1.0000E-04  1.0000E-04  1.0000E-04
       1.0000E-04  1.0000E-04  1.0000E-04  1.0000E-04  1.0000E-04  1.0000E-04  1.0000E-04  1.0000E-04  1.0000E-04  1.0000E-04
       1.0000E-04  1.0000E-04  1.0000E-04  1.0000E-04  1.0000E-04  1.0000E-04  1.0000E-04  1.0000E-04  1.0000E-04  1.0000E-04
       1.0000E-04  1.0000E-04  1.0000E-04  1.0000E-04  1.0000E-04  1.0000E-04  1.0000E-04  1.0000E-04  1.0000E-04  1.0000E-04
       1.0000E-04  1.0000E-04  1.0000E-04  1.0000E-04  1.0000E-04  1.0000E-04  1.0000E-04  1.0000E-04  1.0000E-04  1.0000E-04
       1.0000E-04  1.0000E-04  1.0000E-04  1.0000E-04  1.0000E-04  1.0000E-04
  54   1.0000E-04  1.0000E-04  1.0000E-04  1.0000E-04  1.0000E-04  1.0000E-04  1.0000E-04  1.0000E-04  1.0000E-04  1.0000E-04
       1.0000E-04  1.0000E-04  1.0000E-04  1.0000E-04  1.0000E-04  1.0000E-04  1.0000E-04  1.0000E-04  1.0000E-04  1.0000E-04
       1.0000E-04  1.0000E-04  1.0000E-04  1.0000E-04  1.0000E-04  1.0000E-04  1.0000E-04  1.0000E-04  1.0000E-04  1.0000E-04
       1.0000E-04  1.0000E-04  1.0000E-04  1.0000E-04  1.0000E-04  1.0000E-04  1.0000E-04  1.0000E-04  1.0000E-04  1.0000E-04
       1.0000E-04  1.0000E-04  1.0000E-04  1.0000E-04  1.0000E-04  1.0000E-04  1.0000E-04  1.0000E-04  1.0000E-04  1.0000E-04
       1.0000E-04  1.0000E-04  1.0000E-04  1.0000E-04  1.0000E-04  1.0000E-04  1.0000E-04  1.0000E-04  1.0000E-04  1.0000E-04
       1.0000E-04  1.0000E-04  1.0000E-04  1.0000E-04  1.0000E-04  1.0000E-04  1.0000E-04  1.0000E-04  1.0000E-04  1.0000E-04
       1.0000E-04  1.0000E-04  1.0000E-04  1.0000E-04  1.0000E-04  1.0000E-04
  55   1.0000E-04  1.0000E-04  1.0000E-04  1.0000E-04  1.0000E-04  1.0000E-04  1.0000E-04  1.0000E-04  1.0000E-04  1.0000E-04
       1.0000E-04  1.0000E-04  1.0000E-04  1.0000E-04  1.0000E-04  1.0000E-04  1.0000E-04  1.0000E-04  1.0000E-04  1.0000E-04
       1.0000E-04  1.0000E-04  1.0000E-04  1.0000E-04  1.0000E-04  1.0000E-04  1.0000E-04  1.0000E-04  1.0000E-04  1.0000E-04
       1.0000E-04  1.0000E-04  1.0000E-04  1.0000E-04  1.0000E-04  1.0000E-04  1.0000E-04  1.0000E-04  1.0000E-04  1.0000E-04
       1.0000E-04  1.0000E-04  1.0000E-04  1.0000E-04  1.0000E-04  1.0000E-04  1.0000E-04  1.0000E-04  1.0000E-04  1.0000E-04
       1.0000E-04  1.0000E-04  1.0000E-04  1.0000E-04  1.0000E-04  1.0000E-04  1.0000E-04  1.0000E-04  1.0000E-04  1.0000E-04
       1.0000E-04  1.0000E-04  1.0000E-04  1.0000E-04  1.0000E-04  1.0000E-04  1.0000E-04  1.0000E-04  1.0000E-04  1.0000E-04
       1.0000E-04  1.0000E-04  1.0000E-04  1.0000E-04  1.0000E-04  1.0000E-04
  56   1.0000E-04  1.0000E-04  1.0000E-04  1.0000E-04  1.0000E-04  1.0000E-04  1.0000E-04  1.0000E-04  1.0000E-04  1.0000E-04
       1.0000E-04  1.0000E-04  1.0000E-04  1.0000E-04  1.0000E-04  1.0000E-04  1.0000E-04  1.0000E-04  1.0000E-04  1.0000E-04
       1.0000E-04  1.0000E-04  1.0000E-04  1.0000E-04  1.0000E-04  1.0000E-04  1.0000E-04  1.0000E-04  1.0000E-04  1.0000E-04
       1.0000E-04  1.0000E-04  1.0000E-04  1.0000E-04  1.0000E-04  1.0000E-04  1.0000E-04  1.0000E-04  1.0000E-04  1.0000E-04
       1.0000E-04  1.0000E-04  1.0000E-04  1.0000E-04  1.0000E-04  1.0000E-04  1.0000E-04  1.0000E-04  1.0000E-04  1.0000E-04
       1.0000E-04  1.0000E-04  1.0000E-04  1.0000E-04  1.0000E-04  1.0000E-04  1.0000E-04  1.0000E-04  1.0000E-04  1.0000E-04
       1.0000E-04  1.0000E-04  1.0000E-04  1.0000E-04  1.0000E-04  1.0000E-04  1.0000E-04  1.0000E-04  1.0000E-04  1.0000E-04
       1.0000E-04  1.0000E-04  1.0000E-04  1.0000E-04  1.0000E-04  1.0000E-04
  57   1.0000E-04  1.0000E-04  1.0000E-04  1.0000E-04  1.0000E-04  1.0000E-04  1.0000E-04  1.0000E-04  1.0000E-04  1.0000E-04
       1.0000E-04  1.0000E-04  1.0000E-04  1.0000E-04  1.0000E-04  1.0000E-04  1.0000E-04  1.0000E-04  1.0000E-04  1.0000E-04
       1.0000E-04  1.0000E-04  1.0000E-04  1.0000E-04  1.0000E-04  1.0000E-04  1.0000E-04  1.0000E-04  1.0000E-04  1.0000E-04
       1.0000E-04  1.0000E-04  1.0000E-04  1.0000E-04  1.0000E-04  1.0000E-04  1.0000E-04  1.0000E-04  1.0000E-04  1.0000E-04
       1.0000E-04  1.0000E-04  1.0000E-04  1.0000E-04  1.0000E-04  1.0000E-04  1.0000E-04  1.0000E-04  1.0000E-04  1.0000E-04
       1.0000E-04  1.0000E-04  1.0000E-04  1.0000E-04  1.0000E-04  1.0000E-04  1.0000E-04  1.0000E-04  1.0000E-04  1.0000E-04
       1.0000E-04  1.0000E-04  1.0000E-04  1.0000E-04  1.0000E-04  1.0000E-04  1.0000E-04  1.0000E-04  1.0000E-04  1.0000E-04
       1.0000E-04  1.0000E-04  1.0000E-04  1.0000E-04  1.0000E-04  1.0000E-04
  58   1.0000E-04  1.0000E-04  1.0000E-04  1.0000E-04  1.0000E-04  1.0000E-04  1.0000E-04  1.0000E-04  1.0000E-04  1.0000E-04
       1.0000E-04  1.0000E-04  1.0000E-04  1.0000E-04  1.0000E-04  1.0000E-04  1.0000E-04  1.0000E-04  1.0000E-04  1.0000E-04
       1.0000E-04  1.0000E-04   0.000      1.0000E-04  1.0000E-04  1.0000E-04  1.0000E-04  1.0000E-04  1.0000E-04  1.0000E-04
       1.0000E-04  1.0000E-04  1.0000E-04  1.0000E-04  1.0000E-04  1.0000E-04  1.0000E-04  1.0000E-04  1.0000E-04  1.0000E-04
       1.0000E-04  1.0000E-04  1.0000E-04  1.0000E-04  1.0000E-04  1.0000E-04  1.0000E-04  1.0000E-04  1.0000E-04  1.0000E-04
       1.0000E-04  1.0000E-04  1.0000E-04  1.0000E-04  1.0000E-04  1.0000E-04  1.0000E-04  1.0000E-04  1.0000E-04  1.0000E-04
       1.0000E-04  1.0000E-04  1.0000E-04  1.0000E-04  1.0000E-04  1.0000E-04  1.0000E-04  1.0000E-04  1.0000E-04  1.0000E-04
       1.0000E-04  1.0000E-04  1.0000E-04  1.0000E-04  1.0000E-04  1.0000E-04
  59   1.0000E-04  1.0000E-04  1.0000E-04  1.0000E-04  1.0000E-04  1.0000E-04  1.0000E-04  1.0000E-04  1.0000E-04  1.0000E-04
       1.0000E-04  1.0000E-04  1.0000E-04  1.0000E-04  1.0000E-04  1.0000E-04  1.0000E-04  1.0000E-04  1.0000E-04  1.0000E-04
       1.0000E-04  1.0000E-04  1.0000E-04  1.0000E-04  1.0000E-04  1.0000E-04  1.0000E-04  1.0000E-04  1.0000E-04  1.0000E-04
       1.0000E-04  1.0000E-04  1.0000E-04  1.0000E-04  1.0000E-04  1.0000E-04  1.0000E-04  1.0000E-04  1.0000E-04  1.0000E-04
       1.0000E-04  1.0000E-04  1.0000E-04  1.0000E-04  1.0000E-04  1.0000E-04  1.0000E-04  1.0000E-04  1.0000E-04  1.0000E-04
       1.0000E-04  1.0000E-04  1.0000E-04  1.0000E-04  1.0000E-04  1.0000E-04  1.0000E-04  1.0000E-04  1.0000E-04  1.0000E-04
       1.0000E-04  1.0000E-04  1.0000E-04  1.0000E-04  1.0000E-04  1.0000E-04  1.0000E-04  1.0000E-04  1.0000E-04  1.0000E-04
       1.0000E-04  1.0000E-04  1.0000E-04  1.0000E-04  1.0000E-04  1.0000E-04
  60   1.0000E-04  1.0000E-04  1.0000E-04  1.0000E-04  1.0000E-04  1.0000E-04  1.0000E-04  1.0000E-04  1.0000E-04  1.0000E-04
       1.0000E-04  1.0000E-04  1.0000E-04  1.0000E-04  1.0000E-04  1.0000E-04  1.0000E-04  1.0000E-04  1.0000E-04  1.0000E-04
       1.0000E-04  1.0000E-04  1.0000E-04  1.0000E-04  1.0000E-04  1.0000E-04  1.0000E-04  1.0000E-04  1.0000E-04  1.0000E-04
       1.0000E-04  1.0000E-04  1.0000E-04  1.0000E-04  1.0000E-04  1.0000E-04  1.0000E-04  1.0000E-04  1.0000E-04  1.0000E-04
       1.0000E-04  1.0000E-04  1.0000E-04  1.0000E-04  1.0000E-04  1.0000E-04  1.0000E-04  1.0000E-04  1.0000E-04  1.0000E-04
       1.0000E-04  1.0000E-04  1.0000E-04  1.0000E-04  1.0000E-04  1.0000E-04  1.0000E-04  1.0000E-04  1.0000E-04  1.0000E-04
       1.0000E-04  1.0000E-04  1.0000E-04  1.0000E-04  1.0000E-04  1.0000E-04  1.0000E-04  1.0000E-04  1.0000E-04  1.0000E-04
       1.0000E-04  1.0000E-04  1.0000E-04  1.0000E-04  1.0000E-04  1.0000E-04
  61   1.0000E-04  1.0000E-04  1.0000E-04  1.0000E-04  1.0000E-04  1.0000E-04  1.0000E-04  1.0000E-04  1.0000E-04  1.0000E-04
       1.0000E-04  1.0000E-04  1.0000E-04  1.0000E-04  1.0000E-04  1.0000E-04  1.0000E-04  1.0000E-04  1.0000E-04  1.0000E-04
       1.0000E-04   0.000      1.0000E-04  1.0000E-04  1.0000E-04  1.0000E-04  1.0000E-04  1.0000E-04  1.0000E-04  1.0000E-04
       1.0000E-04  1.0000E-04  1.0000E-04  1.0000E-04  1.0000E-04  1.0000E-04  1.0000E-04  1.0000E-04  1.0000E-04  1.0000E-04
       1.0000E-04  1.0000E-04  1.0000E-04  1.0000E-04  1.0000E-04  1.0000E-04  1.0000E-04  1.0000E-04  1.0000E-04  1.0000E-04
       1.0000E-04  1.0000E-04  1.0000E-04  1.0000E-04  1.0000E-04  1.0000E-04  1.0000E-04  1.0000E-04  1.0000E-04  1.0000E-04
       1.0000E-04  1.0000E-04  1.0000E-04  1.0000E-04  1.0000E-04  1.0000E-04  1.0000E-04  1.0000E-04  1.0000E-04  1.0000E-04
       1.0000E-04  1.0000E-04  1.0000E-04  1.0000E-04  1.0000E-04  1.0000E-04
  62   1.0000E-04  1.0000E-04  1.0000E-04  1.0000E-04  1.0000E-04  1.0000E-04  1.0000E-04  1.0000E-04  1.0000E-04  1.0000E-04
       1.0000E-04  1.0000E-04  1.0000E-04  1.0000E-04  1.0000E-04  1.0000E-04  1.0000E-04  1.0000E-04  1.0000E-04  1.0000E-04
       1.0000E-04   0.000      1.0000E-04  1.0000E-04  1.0000E-04  1.0000E-04  1.0000E-04  1.0000E-04  1.0000E-04  1.0000E-04
       1.0000E-04  1.0000E-04  1.0000E-04  1.0000E-04  1.0000E-04  1.0000E-04  1.0000E-04  1.0000E-04  1.0000E-04  1.0000E-04
       1.0000E-04  1.0000E-04  1.0000E-04  1.0000E-04  1.0000E-04  1.0000E-04  1.0000E-04  1.0000E-04  1.0000E-04  1.0000E-04
       1.0000E-04  1.0000E-04  1.0000E-04  1.0000E-04  1.0000E-04  1.0000E-04  1.0000E-04  1.0000E-04  1.0000E-04  1.0000E-04
       1.0000E-04  1.0000E-04  1.0000E-04  1.0000E-04  1.0000E-04  1.0000E-04  1.0000E-04  1.0000E-04  1.0000E-04  1.0000E-04
       1.0000E-04  1.0000E-04  1.0000E-04  1.0000E-04  1.0000E-04  1.0000E-04
  63   1.0000E-04  1.0000E-04  1.0000E-04  1.0000E-04  1.0000E-04  1.0000E-04  1.0000E-04  1.0000E-04  1.0000E-04  1.0000E-04
       1.0000E-04  1.0000E-04  1.0000E-04  1.0000E-04  1.0000E-04  1.0000E-04  1.0000E-04  1.0000E-04  1.0000E-04  1.0000E-04
       1.0000E-04  1.0000E-04  1.0000E-04  1.0000E-04  1.0000E-04  1.0000E-04  1.0000E-04  1.0000E-04  1.0000E-04  1.0000E-04
       1.0000E-04  1.0000E-04  1.0000E-04  1.0000E-04  1.0000E-04  1.0000E-04  1.0000E-04  1.0000E-04  1.0000E-04  1.0000E-04
       1.0000E-04  1.0000E-04  1.0000E-04  1.0000E-04  1.0000E-04  1.0000E-04  1.0000E-04  1.0000E-04  1.0000E-04  1.0000E-04
       1.0000E-04  1.0000E-04  1.0000E-04  1.0000E-04  1.0000E-04  1.0000E-04  1.0000E-04  1.0000E-04  1.0000E-04  1.0000E-04
       1.0000E-04  1.0000E-04  1.0000E-04  1.0000E-04  1.0000E-04  1.0000E-04  1.0000E-04  1.0000E-04  1.0000E-04  1.0000E-04
       1.0000E-04  1.0000E-04  1.0000E-04  1.0000E-04  1.0000E-04  1.0000E-04
  64   1.0000E-04  1.0000E-04  1.0000E-04  1.0000E-04  1.0000E-04  1.0000E-04  1.0000E-04  1.0000E-04  1.0000E-04  1.0000E-04
       1.0000E-04  1.0000E-04  1.0000E-04  1.0000E-04  1.0000E-04  1.0000E-04  1.0000E-04  1.0000E-04  1.0000E-04  1.0000E-04
        0.000      1.0000E-04  1.0000E-04  1.0000E-04  1.0000E-04  1.0000E-04  1.0000E-04  1.0000E-04  1.0000E-04  1.0000E-04
       1.0000E-04  1.0000E-04  1.0000E-04  1.0000E-04  1.0000E-04  1.0000E-04  1.0000E-04  1.0000E-04  1.0000E-04  1.0000E-04
       1.0000E-04  1.0000E-04  1.0000E-04  1.0000E-04  1.0000E-04  1.0000E-04  1.0000E-04  1.0000E-04  1.0000E-04  1.0000E-04
       1.0000E-04  1.0000E-04  1.0000E-04  1.0000E-04  1.0000E-04  1.0000E-04  1.0000E-04  1.0000E-04  1.0000E-04  1.0000E-04
       1.0000E-04  1.0000E-04  1.0000E-04  1.0000E-04  1.0000E-04  1.0000E-04  1.0000E-04  1.0000E-04  1.0000E-04  1.0000E-04
       1.0000E-04  1.0000E-04  1.0000E-04  1.0000E-04  1.0000E-04  1.0000E-04
  65   1.0000E-04  1.0000E-04  1.0000E-04  1.0000E-04  1.0000E-04  1.0000E-04  1.0000E-04  1.0000E-04  1.0000E-04  1.0000E-04
       1.0000E-04  1.0000E-04  1.0000E-04  1.0000E-04  1.0000E-04  1.0000E-04  1.0000E-04  1.0000E-04  1.0000E-04  1.0000E-04
        0.000      1.0000E-04  1.0000E-04  1.0000E-04  1.0000E-04  1.0000E-04  1.0000E-04  1.0000E-04  1.0000E-04  1.0000E-04
       1.0000E-04  1.0000E-04  1.0000E-04  1.0000E-04  1.0000E-04  1.0000E-04  1.0000E-04  1.0000E-04  1.0000E-04  1.0000E-04
       1.0000E-04  1.0000E-04  1.0000E-04  1.0000E-04  1.0000E-04  1.0000E-04  1.0000E-04  1.0000E-04  1.0000E-04  1.0000E-04
       1.0000E-04  1.0000E-04  1.0000E-04  1.0000E-04  1.0000E-04  1.0000E-04  1.0000E-04  1.0000E-04  1.0000E-04  1.0000E-04
       1.0000E-04  1.0000E-04  1.0000E-04  1.0000E-04  1.0000E-04  1.0000E-04  1.0000E-04  1.0000E-04  1.0000E-04  1.0000E-04
       1.0000E-04  1.0000E-04  1.0000E-04  1.0000E-04  1.0000E-04  1.0000E-04
  66   1.0000E-04  1.0000E-04  1.0000E-04  1.0000E-04  1.0000E-04  1.0000E-04  1.0000E-04  1.0000E-04  1.0000E-04  1.0000E-04
       1.0000E-04  1.0000E-04  1.0000E-04  1.0000E-04  1.0000E-04  1.0000E-04  1.0000E-04  1.0000E-04  1.0000E-04  1.0000E-04
        0.000      1.0000E-04  1.0000E-04  1.0000E-04  1.0000E-04  1.0000E-04  1.0000E-04  1.0000E-04  1.0000E-04  1.0000E-04
       1.0000E-04  1.0000E-04  1.0000E-04  1.0000E-04  1.0000E-04  1.0000E-04  1.0000E-04  1.0000E-04  1.0000E-04  1.0000E-04
       1.0000E-04  1.0000E-04  1.0000E-04  1.0000E-04  1.0000E-04  1.0000E-04  1.0000E-04  1.0000E-04  1.0000E-04  1.0000E-04
       1.0000E-04  1.0000E-04  1.0000E-04  1.0000E-04  1.0000E-04  1.0000E-04  1.0000E-04  1.0000E-04  1.0000E-04  1.0000E-04
       1.0000E-04  1.0000E-04  1.0000E-04  1.0000E-04  1.0000E-04  1.0000E-04  1.0000E-04  1.0000E-04  1.0000E-04  1.0000E-04
       1.0000E-04  1.0000E-04  1.0000E-04  1.0000E-04  1.0000E-04  1.0000E-04
  67   1.0000E-04  1.0000E-04  1.0000E-04  1.0000E-04  1.0000E-04  1.0000E-04  1.0000E-04  1.0000E-04  1.0000E-04  1.0000E-04
       1.0000E-04  1.0000E-04  1.0000E-04  1.0000E-04  1.0000E-04  1.0000E-04  1.0000E-04  1.0000E-04  1.0000E-04  1.0000E-04
       1.0000E-04  1.0000E-04  1.0000E-04  1.0000E-04  1.0000E-04  1.0000E-04  1.0000E-04  1.0000E-04  1.0000E-04  1.0000E-04
       1.0000E-04  1.0000E-04  1.0000E-04  1.0000E-04  1.0000E-04  1.0000E-04  1.0000E-04  1.0000E-04  1.0000E-04  1.0000E-04
       1.0000E-04  1.0000E-04  1.0000E-04  1.0000E-04  1.0000E-04  1.0000E-04  1.0000E-04  1.0000E-04  1.0000E-04  1.0000E-04
       1.0000E-04  1.0000E-04  1.0000E-04  1.0000E-04  1.0000E-04  1.0000E-04  1.0000E-04  1.0000E-04  1.0000E-04  1.0000E-04
       1.0000E-04  1.0000E-04  1.0000E-04  1.0000E-04  1.0000E-04  1.0000E-04  1.0000E-04  1.0000E-04  1.0000E-04  1.0000E-04
       1.0000E-04  1.0000E-04  1.0000E-04  1.0000E-04  1.0000E-04  1.0000E-04
  68   1.0000E-04  1.0000E-04  1.0000E-04  1.0000E-04  1.0000E-04  1.0000E-04  1.0000E-04  1.0000E-04  1.0000E-04  1.0000E-04
       1.0000E-04  1.0000E-04  1.0000E-04  1.0000E-04  1.0000E-04  1.0000E-04  1.0000E-04  1.0000E-04  1.0000E-04   0.000    
       1.0000E-04  1.0000E-04  1.0000E-04  1.0000E-04  1.0000E-04  1.0000E-04  1.0000E-04  1.0000E-04  1.0000E-04  1.0000E-04
       1.0000E-04  1.0000E-04  1.0000E-04  1.0000E-04  1.0000E-04  1.0000E-04  1.0000E-04  1.0000E-04  1.0000E-04  1.0000E-04
       1.0000E-04  1.0000E-04  1.0000E-04  1.0000E-04  1.0000E-04  1.0000E-04  1.0000E-04  1.0000E-04  1.0000E-04  1.0000E-04
       1.0000E-04  1.0000E-04  1.0000E-04  1.0000E-04  1.0000E-04  1.0000E-04  1.0000E-04  1.0000E-04  1.0000E-04  1.0000E-04
       1.0000E-04  1.0000E-04  1.0000E-04  1.0000E-04  1.0000E-04  1.0000E-04  1.0000E-04  1.0000E-04  1.0000E-04  1.0000E-04
       1.0000E-04  1.0000E-04  1.0000E-04  1.0000E-04  1.0000E-04  1.0000E-04
  69   1.0000E-04  1.0000E-04  1.0000E-04  1.0000E-04  1.0000E-04  1.0000E-04  1.0000E-04  1.0000E-04  1.0000E-04  1.0000E-04
       1.0000E-04  1.0000E-04  1.0000E-04  1.0000E-04  1.0000E-04  1.0000E-04  1.0000E-04  1.0000E-04  1.0000E-04   0.000    
       1.0000E-04  1.0000E-04  1.0000E-04  1.0000E-04  1.0000E-04  1.0000E-04  1.0000E-04  1.0000E-04  1.0000E-04  1.0000E-04
       1.0000E-04  1.0000E-04  1.0000E-04  1.0000E-04  1.0000E-04  1.0000E-04  1.0000E-04  1.0000E-04  1.0000E-04  1.0000E-04
       1.0000E-04  1.0000E-04  1.0000E-04  1.0000E-04  1.0000E-04  1.0000E-04  1.0000E-04  1.0000E-04  1.0000E-04  1.0000E-04
       1.0000E-04  1.0000E-04  1.0000E-04  1.0000E-04  1.0000E-04  1.0000E-04  1.0000E-04  1.0000E-04  1.0000E-04  1.0000E-04
       1.0000E-04  1.0000E-04  1.0000E-04  1.0000E-04  1.0000E-04  1.0000E-04  1.0000E-04  1.0000E-04  1.0000E-04  1.0000E-04
       1.0000E-04  1.0000E-04  1.0000E-04  1.0000E-04  1.0000E-04  1.0000E-04
  70   1.0000E-04  1.0000E-04  1.0000E-04  1.0000E-04  1.0000E-04  1.0000E-04  1.0000E-04  1.0000E-04  1.0000E-04  1.0000E-04
       1.0000E-04  1.0000E-04  1.0000E-04  1.0000E-04  1.0000E-04  1.0000E-04  1.0000E-04  1.0000E-04  1.0000E-04   0.000    
       1.0000E-04  1.0000E-04  1.0000E-04  1.0000E-04  1.0000E-04  1.0000E-04  1.0000E-04  1.0000E-04  1.0000E-04  1.0000E-04
       1.0000E-04  1.0000E-04  1.0000E-04  1.0000E-04  1.0000E-04  1.0000E-04  1.0000E-04  1.0000E-04  1.0000E-04  1.0000E-04
       1.0000E-04  1.0000E-04  1.0000E-04  1.0000E-04  1.0000E-04  1.0000E-04  1.0000E-04  1.0000E-04  1.0000E-04  1.0000E-04
       1.0000E-04  1.0000E-04  1.0000E-04  1.0000E-04  1.0000E-04  1.0000E-04  1.0000E-04  1.0000E-04  1.0000E-04  1.0000E-04
       1.0000E-04  1.0000E-04  1.0000E-04  1.0000E-04  1.0000E-04  1.0000E-04  1.0000E-04  1.0000E-04  1.0000E-04  1.0000E-04
       1.0000E-04  1.0000E-04  1.0000E-04  1.0000E-04  1.0000E-04  1.0000E-04
  71   1.0000E-04  1.0000E-04  1.0000E-04  1.0000E-04  1.0000E-04  1.0000E-04  1.0000E-04  1.0000E-04  1.0000E-04  1.0000E-04
       1.0000E-04  1.0000E-04  1.0000E-04  1.0000E-04  1.0000E-04  1.0000E-04  1.0000E-04  1.0000E-04   0.000      1.0000E-04
       1.0000E-04  1.0000E-04  1.0000E-04  1.0000E-04  1.0000E-04  1.0000E-04  1.0000E-04  1.0000E-04  1.0000E-04  1.0000E-04
       1.0000E-04  1.0000E-04  1.0000E-04  1.0000E-04  1.0000E-04  1.0000E-04  1.0000E-04  1.0000E-04  1.0000E-04  1.0000E-04
       1.0000E-04  1.0000E-04  1.0000E-04  1.0000E-04  1.0000E-04  1.0000E-04  1.0000E-04  1.0000E-04  1.0000E-04  1.0000E-04
       1.0000E-04  1.0000E-04  1.0000E-04  1.0000E-04  1.0000E-04  1.0000E-04  1.0000E-04  1.0000E-04  1.0000E-04  1.0000E-04
       1.0000E-04  1.0000E-04  1.0000E-04  1.0000E-04  1.0000E-04  1.0000E-04  1.0000E-04  1.0000E-04  1.0000E-04  1.0000E-04
       1.0000E-04  1.0000E-04  1.0000E-04  1.0000E-04  1.0000E-04  1.0000E-04
  72    2.610       2.610       2.610       2.610       2.610       2.610       2.610       2.610       2.610       2.610    
        2.610       2.610       2.610       2.610       2.610       2.610       2.610       2.610       0.000       2.610    
        2.610       2.610       2.610       2.610       2.610       2.610       2.610       2.610       2.610       2.610    
        2.610       2.610       2.610       2.610       2.610       2.610       2.610       2.610       2.610       2.610    
        2.610       2.610       2.610       2.610       2.610       2.610       2.610       2.610       2.610       2.610    
        2.610       2.610       2.610       2.610       2.610       2.610       2.610       2.610       2.610       2.610    
        2.610       2.610       2.610       2.610       2.610       2.610       2.610       2.610       2.610       2.610    
        2.610       2.610       2.610       2.610       2.610       2.610    
  73    2.610       2.610       2.610       2.610       2.610       2.610       2.610       2.610       2.610       2.610    
        2.610       2.610       2.610       2.610       2.610       2.610       2.610       2.610       0.000       2.610    
        2.610       2.610       2.610       2.610       2.610       2.610       2.610       2.610       2.610       2.610    
        2.610       2.610       2.610       2.610       2.610       2.610       2.610       2.610       2.610       2.610    
        2.610       2.610       2.610       2.610       2.610       2.610       2.610       2.610       2.610       2.610    
        2.610       2.610       2.610       2.610       2.610       2.610       2.610       2.610       2.610       2.610    
        2.610       2.610       2.610       2.610       2.610       2.610       2.610       2.610       2.610       2.610    
        2.610       2.610       2.610       2.610       2.610       2.610    
  74    2.610       2.610       2.610       2.610       2.610       2.610       2.610       2.610       2.610       2.610    
        2.610       2.610       2.610       2.610       2.610       2.610       2.610       0.000       0.000       2.610    
        2.610       2.610       2.610       2.610       2.610       2.610       2.610       2.610       2.610       2.610    
        2.610       2.610       2.610       2.610       2.610       2.610       2.610       2.610       2.610       2.610    
        2.610       2.610       2.610       2.610       2.610       2.610       2.610       2.610       2.610       2.610    
        2.610       2.610       2.610       2.610       2.610       2.610       2.610       2.610       2.610       2.610    
        2.610       2.610       2.610       2.610       2.610       2.610       2.610       2.610       2.610       2.610    
        2.610       2.610       2.610       2.610       2.610       2.610    
  75    2.610       2.610       2.610       2.610       2.610       2.610       2.610       2.610       2.610       2.610    
        2.610       2.610       2.610       2.610       2.610       2.610       2.610       0.000       2.610       2.610    
        2.610       2.610       2.610       2.610       2.610       2.610       2.610       2.610       2.610       2.610    
        2.610       2.610       2.610       2.610       2.610       2.610       2.610       2.610       2.610       2.610    
        2.610       2.610       2.610       2.610       2.610       2.610       2.610       2.610       2.610       2.610    
        2.610       2.610       2.610       2.610       2.610       2.610       2.610       2.610       2.610       2.610    
        2.610       2.610       2.610       2.610       2.610       2.610       2.610       2.610       2.610       2.610    
        2.610       2.610       2.610       2.610       2.610       2.610    
  76    2.610       2.610       2.610       2.610       2.610       2.610       2.610       2.610       2.610       2.610    
        2.610       2.610       2.610       2.610       2.610       2.610       2.610       0.000       2.610       2.610    
        2.610       2.610       2.610       2.610       2.610       2.610       2.610       2.610       2.610       2.610    
        2.610       2.610       2.610       2.610       2.610       2.610       2.610       2.610       2.610       2.610    
        2.610       2.610       2.610       2.610       2.610       2.610       2.610       2.610       2.610       2.610    
        2.610       2.610       2.610       2.610       2.610       2.610       2.610       2.610       2.610       2.610    
        2.610       2.610       2.610       2.610       2.610       2.610       2.610       2.610       2.610       2.610    
        2.610       2.610       2.610       2.610       2.610       2.610    
  77    2.610       2.610       2.610       2.610       2.610       2.610       2.610       2.610       2.610       2.610    
        2.610       2.610       2.610       2.610       2.610       2.610       0.000       0.000       2.610       2.610    
        2.610       2.610       2.610       2.610       2.610       2.610       2.610       2.610       2.610       2.610    
        2.610       2.610       2.610       2.610       2.610       2.610       2.610       2.610       2.610       2.610    
        2.610       2.610       2.610       2.610       2.610       2.610       2.610       2.610       2.610       2.610    
        2.610       2.610       2.610       2.610       2.610       2.610       2.610       2.610       2.610       2.610    
        2.610       2.610       2.610       2.610       2.610       2.610       2.610       2.610       2.610       2.610    
        2.610       2.610       2.610       2.610       2.610       2.610    
  78    2.610       2.610       2.610       2.610       2.610       2.610       2.610       2.610       2.610       2.610    
        2.610       2.610       2.610       2.610       2.610       2.610       0.000       0.000       2.610       2.610    
        2.610       2.610       2.610       2.610       2.610       2.610       2.610       2.610       2.610       2.610    
        2.610       2.610       2.610       2.610       2.610       2.610       2.610       2.610       2.610       2.610    
        2.610       2.610       2.610       2.610       2.610       2.610       2.610       2.610       2.610       2.610    
        2.610       2.610       2.610       2.610       2.610       2.610       2.610       2.610       2.610       2.610    
        2.610       2.610       2.610       2.610       2.610       2.610       2.610       2.610       2.610       2.610    
        2.610       2.610       2.610       2.610       2.610       2.610    
  79    2.610       2.610       2.610       2.610       2.610       2.610       2.610       2.610       2.610       2.610    
        2.610       2.610       2.610       2.610       2.610       2.610       0.000       0.000       2.610       2.610    
        2.610       2.610       2.610       2.610       2.610       2.610       2.610       2.610       2.610       2.610    
        2.610       2.610       2.610       2.610       2.610       2.610       2.610       2.610       2.610       2.610    
        2.610       2.610       2.610       2.610       2.610       2.610       2.610       2.610       2.610       2.610    
        2.610       2.610       2.610       2.610       2.610       2.610       2.610       2.610       2.610       2.610    
        2.610       2.610       2.610       2.610       2.610       2.610       2.610       2.610       2.610       2.610    
        2.610       2.610       2.610       2.610       2.610       2.610    
  80    2.610       2.610       2.610       2.610       2.610       2.610       2.610       2.610       2.610       2.610    
        2.610       2.610       2.610       2.610       2.610       2.610       0.000       2.610       2.610       2.610    
        2.610       2.610       2.610       2.610       2.610       2.610       2.610       2.610       2.610       2.610    
        2.610       2.610       2.610       2.610       2.610       2.610       2.610       2.610       2.610       2.610    
        2.610       2.610       2.610       2.610       2.610       2.610       2.610       2.610       2.610       2.610    
        2.610       2.610       2.610       2.610       2.610       2.610       2.610       2.610       2.610       2.610    
        2.610       2.610       2.610       2.610       2.610       2.610       2.610       2.610       2.610       2.610    
        2.610       2.610       2.610       2.610       2.610       2.610    
  81    2.610       2.610       2.610       2.610       2.610       2.610       2.610       2.610       2.610       2.610    
        2.610       2.610       2.610       2.610       2.610       0.000       0.000       2.610       2.610       2.610    
        2.610       2.610       2.610       2.610       2.610       2.610       2.610       2.610       2.610       2.610    
        2.610       2.610       2.610       2.610       2.610       2.610       2.610       2.610       2.610       2.610    
        2.610       2.610       2.610       2.610       2.610       2.610       2.610       2.610       2.610       2.610    
        2.610       2.610       2.610       2.610       2.610       2.610       2.610       2.610       2.610       2.610    
        2.610       2.610       2.610       2.610       2.610       2.610       2.610       2.610       2.610       2.610    
        2.610       2.610       2.610       2.610       2.610       2.610    
  82    2.610       2.610       2.610       2.610       2.610       2.610       2.610       2.610       2.610       2.610    
        2.610       2.610       2.610       2.610       2.610       0.000       0.000       2.610       2.610       2.610    
        2.610       2.610       2.610       2.610       2.610       2.610       2.610       2.610       2.610       2.610    
        2.610       2.610       2.610       2.610       2.610       2.610       2.610       2.610       2.610       2.610    
        2.610       2.610       2.610       2.610       2.610       2.610       2.610       2.610       2.610       2.610    
        2.610       2.610       2.610       2.610       2.610       2.610       2.610       2.610       2.610       2.610    
        2.610       2.610       2.610       2.610       2.610       2.610       2.610       2.610       2.610       2.610    
        2.610       2.610       2.610       2.610       2.610       2.610    
  83    2.610       2.610       2.610       2.610       2.610       2.610       2.610       2.610       2.610       2.610    
        2.610       2.610       2.610       2.610       2.610       0.000       2.610       2.610       2.610       2.610    
        2.610       2.610       2.610       2.610       2.610       2.610       2.610       2.610       2.610       2.610    
        2.610       2.610       2.610       2.610       2.610       2.610       2.610       2.610       2.610       2.610    
        2.610       2.610       2.610       2.610       2.610       2.610       2.610       2.610       2.610       2.610    
        2.610       2.610       2.610       2.610       2.610       2.610       2.610       2.610       2.610       2.610    
        2.610       2.610       2.610       2.610       2.610       2.610       2.610       2.610       2.610       2.610    
        2.610       2.610       2.610       2.610       2.610       2.610    
  84    2.610       2.610       2.610       2.610       2.610       2.610       2.610       2.610       2.610       2.610    
        2.610       2.610       2.610       2.610       0.000       0.000       2.610       2.610       2.610       2.610    
        2.610       2.610       2.610       2.610       2.610       2.610       2.610       2.610       2.610       2.610    
        2.610       2.610       2.610       2.610       2.610       2.610       2.610       2.610       2.610       2.610    
        2.610       2.610       2.610       2.610       2.610       2.610       2.610       2.610       2.610       2.610    
        2.610       2.610       2.610       2.610       2.610       2.610       2.610       2.610       2.610       2.610    
        2.610       2.610       2.610       2.610       2.610       2.610       2.610       2.610       2.610       2.610    
        2.610       2.610       2.610       2.610       2.610       2.610    
  85    2.610       2.610       2.610       2.610       2.610       2.610       2.610       2.610       2.610       2.610    
        2.610       2.610       2.610       2.610       0.000       0.000       2.610       2.610       2.610       2.610    
        2.610       2.610       2.610       2.610       2.610       2.610       2.610       2.610       2.610       2.610    
        2.610       2.610       2.610       2.610       2.610       2.610       2.610       2.610       2.610       2.610    
        2.610       2.610       2.610       2.610       2.610       2.610       2.610       2.610       2.610       2.610    
        2.610       2.610       2.610       2.610       2.610       2.610       2.610       2.610       2.610       2.610    
        2.610       2.610       2.610       2.610       2.610       2.610       2.610       2.610       2.610       2.610    
        2.610       2.610       2.610       2.610       2.610       2.610    
  86    2.610       2.610       2.610       2.610       2.610       2.610       2.610       2.610       2.610       2.610    
        2.610       2.610       2.610       2.610       0.000       2.610       2.610       2.610       2.610       2.610    
        2.610       2.610       2.610       2.610       2.610       2.610       2.610       2.610       2.610       2.610    
        2.610       2.610       2.610       2.610       2.610       2.610       2.610       2.610       2.610       2.610    
        2.610       2.610       2.610       2.610       2.610       2.610       2.610       2.610       2.610       2.610    
        2.610       2.610       2.610       2.610       2.610       2.610       2.610       2.610       2.610       2.610    
        2.610       2.610       2.610       2.610       2.610       2.610       2.610       2.610       2.610       2.610    
        2.610       2.610       2.610       2.610       2.610       2.610    
  87    2.610       2.610       2.610       2.610       2.610       2.610       2.610       2.610       2.610       2.610    
        2.610       2.610       2.610       0.000       0.000       2.610       2.610       2.610       2.610       2.610    
        2.610       2.610       2.610       2.610       2.610       2.610       2.610       2.610       2.610       2.610    
        2.610       2.610       2.610       2.610       2.610       2.610       2.610       2.610       2.610       2.610    
        2.610       2.610       2.610       2.610       2.610       2.610       2.610       2.610       2.610       2.610    
        2.610       2.610       2.610       2.610       2.610       2.610       2.610       2.610       2.610       2.610    
        2.610       2.610       2.610       2.610       2.610       2.610       2.610       2.610       2.610       2.610    
        2.610       2.610       2.610       2.610       2.610       2.610    
  88    2.610       2.610       2.610       2.610       2.610       2.610       2.610       2.610       2.610       2.610    
        2.610       2.610       2.610       0.000       0.000       2.610       2.610       2.610       2.610       2.610    
        2.610       2.610       2.610       2.610       2.610       2.610       2.610       2.610       2.610       2.610    
        2.610       2.610       2.610       2.610       2.610       2.610       2.610       2.610       2.610       2.610    
        2.610       2.610       2.610       2.610       2.610       2.610       2.610       2.610       2.610       2.610    
        2.610       2.610       2.610       2.610       2.610       2.610       2.610       2.610       2.610       2.610    
        2.610       2.610       2.610       2.610       2.610       2.610       2.610       2.610       2.610       2.610    
        2.610       2.610       2.610       2.610       2.610       2.610    
  89    2.610       2.610       2.610       2.610       2.610       2.610       2.610       2.610       2.610       2.610    
        2.610       2.610       2.610       0.000       2.610       2.610       2.610       2.610       2.610       2.610    
        2.610       2.610       2.610       2.610       2.610       2.610       2.610       2.610       2.610       2.610    
        2.610       2.610       2.610       2.610       2.610       2.610       2.610       2.610       2.610       2.610    
        2.610       2.610       2.610       2.610       2.610       2.610       2.610       2.610       2.610       2.610    
        2.610       2.610       2.610       2.610       2.610       2.610       2.610       2.610       2.610       2.610    
        2.610       2.610       2.610       2.610       2.610       2.610       2.610       2.610       2.610       2.610    
        2.610       2.610       2.610       2.610       2.610       2.610    
  90    2.610       2.610       2.610       2.610       2.610       2.610       2.610       2.610       2.610       2.610    
        2.610       2.610       0.000       0.000       2.610       2.610       2.610       2.610       2.610       2.610    
        2.610       2.610       2.610       2.610       2.610       2.610       2.610       2.610       2.610       2.610    
        2.610       2.610       2.610       2.610       2.610       2.610       2.610       2.610       2.610       2.610    
        2.610       2.610       2.610       2.610       2.610       2.610       2.610       2.610       2.610       2.610    
        2.610       2.610       2.610       2.610       2.610       2.610       2.610       2.610       2.610       2.610    
        2.610       2.610       2.610       2.610       2.610       2.610       2.610       2.610       2.610       2.610    
        2.610       2.610       2.610       2.610       2.610       2.610    
  91    2.610       2.610       2.610       2.610       2.610       2.610       2.610       2.610       2.610       2.610    
        2.610       2.610       0.000       0.000       2.610       2.610       2.610       2.610       2.610       2.610    
        2.610       2.610       2.610       2.610       2.610       2.610       2.610       2.610       2.610       2.610    
        2.610       2.610       2.610       2.610       2.610       2.610       2.610       2.610       2.610       2.610    
        2.610       2.610       2.610       2.610       2.610       2.610       2.610       2.610       2.610       2.610    
        2.610       2.610       2.610       2.610       2.610       2.610       2.610       2.610       2.610       2.610    
        2.610       2.610       2.610       2.610       2.610       2.610       2.610       2.610       2.610       2.610    
        2.610       2.610       2.610       2.610       2.610       2.610    
  92    2.610       2.610       2.610       2.610       2.610       2.610       2.610       2.610       2.610       2.610    
        2.610       2.610       0.000       2.610       2.610       2.610       2.610       2.610       2.610       2.610    
        2.610       2.610       2.610       2.610       2.610       2.610       2.610       2.610       2.610       2.610    
        2.610       2.610       2.610       2.610       2.610       2.610       2.610       2.610       2.610       2.610    
        2.610       2.610       2.610       2.610       2.610       2.610       2.610       2.610       2.610       2.610    
        2.610       2.610       2.610       2.610       2.610       2.610       2.610       2.610       2.610       2.610    
        2.610       2.610       2.610       2.610       2.610       2.610       2.610       2.610       2.610       2.610    
        2.610       2.610       2.610       2.610       2.610       2.610    
  93    2.610       2.610       2.610       2.610       2.610       2.610       2.610       2.610       2.610       2.610    
        2.610       2.610       0.000       2.610       2.610       2.610       2.610       2.610       2.610       2.610    
        2.610       2.610       2.610       2.610       2.610       2.610       2.610       2.610       2.610       2.610    
        2.610       2.610       2.610       2.610       2.610       2.610       2.610       2.610       2.610       2.610    
        2.610       2.610       2.610       2.610       2.610       2.610       2.610       2.610       2.610       2.610    
        2.610       2.610       2.610       2.610       2.610       2.610       2.610       2.610       2.610       2.610    
        2.610       2.610       2.610       2.610       2.610       2.610       2.610       2.610       2.610       2.610    
        2.610       2.610       2.610       2.610       2.610       2.610    
  94    2.610       2.610       2.610       2.610       2.610       2.610       2.610       2.610       2.610       2.610    
        2.610       0.000       0.000       2.610       2.610       2.610       2.610       2.610       2.610       2.610    
        2.610       2.610       2.610       2.610       2.610       2.610       2.610       2.610       2.610       2.610    
        2.610       2.610       2.610       2.610       2.610       2.610       2.610       2.610       2.610       2.610    
        2.610       2.610       2.610       2.610       2.610       2.610       2.610       2.610       2.610       2.610    
        2.610       2.610       2.610       2.610       2.610       2.610       2.610       2.610       2.610       2.610    
        2.610       2.610       2.610       2.610       2.610       2.610       2.610       2.610       2.610       2.610    
        2.610       2.610       2.610       2.610       2.610       2.610    
  95    2.610       2.610       2.610       2.610       2.610       2.610       2.610       2.610       2.610       2.610    
        2.610       0.000       2.610       2.610       2.610       2.610       2.610       2.610       2.610       2.610    
        2.610       2.610       2.610       2.610       2.610       2.610       2.610       2.610       2.610       2.610    
        2.610       2.610       2.610       2.610       2.610       2.610       2.610       2.610       2.610       2.610    
        2.610       2.610       2.610       2.610       2.610       2.610       2.610       2.610       2.610       2.610    
        2.610       2.610       2.610       2.610       2.610       2.610       2.610       2.610       2.610       2.610    
        2.610       2.610       2.610       2.610       2.610       2.610       2.610       2.610       2.610       2.610    
        2.610       2.610       2.610       2.610       2.610       2.610    
  96    2.610       2.610       2.610       2.610       2.610       2.610       2.610       2.610       2.610       2.610    
        2.610       0.000       2.610       2.610       2.610       2.610       2.610       2.610       2.610       2.610    
        2.610       2.610       2.610       2.610       2.610       2.610       2.610       2.610       2.610       2.610    
        2.610       2.610       2.610       2.610       2.610       2.610       2.610       2.610       2.610       2.610    
        2.610       2.610       2.610       2.610       2.610       2.610       2.610       2.610       2.610       2.610    
        2.610       2.610       2.610       2.610       2.610       2.610       2.610       2.610       2.610       2.610    
        2.610       2.610       2.610       2.610       2.610       2.610       2.610       2.610       2.610       2.610    
        2.610       2.610       2.610       2.610       2.610       2.610    
  97    2.610       2.610       2.610       2.610       2.610       2.610       2.610       2.610       2.610       2.610    
        0.000       0.000       2.610       2.610       2.610       2.610       2.610       2.610       2.610       2.610    
        2.610       2.610       2.610       2.610       2.610       2.610       2.610       2.610       2.610       2.610    
        2.610       2.610       2.610       2.610       2.610       2.610       2.610       2.610       2.610       2.610    
        2.610       2.610       2.610       2.610       2.610       2.610       2.610       2.610       2.610       2.610    
        2.610       2.610       2.610       2.610       2.610       2.610       2.610       2.610       2.610       2.610    
        2.610       2.610       2.610       2.610       2.610       2.610       2.610       2.610       2.610       2.610    
        2.610       2.610       2.610       2.610       2.610       2.610    
  98    2.610       2.610       2.610       2.610       2.610       2.610       2.610       2.610       2.610       2.610    
        0.000       2.610       2.610       2.610       2.610       2.610       2.610       2.610       2.610       2.610    
        2.610       2.610       2.610       2.610       2.610       2.610       2.610       2.610       2.610       2.610    
        2.610       2.610       2.610       2.610       2.610       2.610       2.610       2.610       2.610       2.610    
        2.610       2.610       2.610       2.610       2.610       2.610       2.610       2.610       2.610       2.610    
        2.610       2.610       2.610       2.610       2.610       2.610       2.610       2.610       2.610       2.610    
        2.610       2.610       2.610       2.610       2.610       2.610       2.610       2.610       2.610       2.610    
        2.610       2.610       2.610       2.610       2.610       2.610    
  99    2.610       2.610       2.610       2.610       2.610       2.610       2.610       2.610       2.610       2.610    
        0.000       2.610       2.610       2.610       2.610       2.610       2.610       2.610       2.610       2.610    
        2.610       2.610       2.610       2.610       2.610       2.610       2.610       2.610       2.610       2.610    
        2.610       2.610       2.610       2.610       2.610       2.610       2.610       2.610       2.610       2.610    
        2.610       2.610       2.610       2.610       2.610       2.610       2.610       2.610       2.610       2.610    
        2.610       2.610       2.610       2.610       2.610       2.610       2.610       2.610       2.610       2.610    
        2.610       2.610       2.610       2.610       2.610       2.610       2.610       2.610       2.610       2.610    
        2.610       2.610       2.610       2.610       2.610       2.610    
 100    2.610       2.610       2.610       2.610       2.610       2.610       2.610       2.610       2.610       0.000    
        0.000       2.610       2.610       2.610       2.610       2.610       2.610       2.610       2.610       2.610    
        2.610       2.610       2.610       2.610       2.610       2.610       2.610       2.610       2.610       2.610    
        2.610       2.610       2.610       2.610       2.610       2.610       2.610       2.610       2.610       2.610    
        2.610       2.610       2.610       2.610       2.610       2.610       2.610       2.610       2.610       2.610    
        2.610       2.610       2.610       2.610       2.610       2.610       2.610       2.610       2.610       2.610    
        2.610       2.610       2.610       2.610       2.610       2.610       2.610       2.610       2.610       2.610    
        2.610       2.610       2.610       2.610       2.610       2.610    
 101    2.610       2.610       2.610       2.610       2.610       2.610       2.610       2.610       2.610       0.000    
        2.610       2.610       2.610       2.610       2.610       2.610       2.610       2.610       2.610       2.610    
        2.610       2.610       2.610       2.610       2.610       2.610       2.610       2.610       2.610       2.610    
        2.610       2.610       2.610       2.610       2.610       2.610       2.610       2.610       2.610       2.610    
        2.610       2.610       2.610       2.610       2.610       2.610       2.610       2.610       2.610       2.610    
        2.610       2.610       2.610       2.610       2.610       2.610       2.610       2.610       2.610       2.610    
        2.610       2.610       2.610       2.610       2.610       2.610       2.610       2.610       2.610       2.610    
        2.610       2.610       2.610       2.610       2.610       2.610    
 102    2.610       2.610       2.610       2.610       2.610       2.610       2.610       2.610       2.610       0.000    
        2.610       2.610       2.610       2.610       2.610       2.610       2.610       2.610       2.610       2.610    
        2.610       2.610       2.610       2.610       2.610       2.610       2.610       2.610       2.610       2.610    
        2.610       2.610       2.610       2.610       2.610       2.610       2.610       2.610       2.610       2.610    
        2.610       2.610       2.610       2.610       2.610       2.610       2.610       2.610       2.610       2.610    
        2.610       2.610       2.610       2.610       2.610       2.610       2.610       2.610       2.610       2.610    
        2.610       2.610       2.610       2.610       2.610       2.610       2.610       2.610       2.610       2.610    
        2.610       2.610       2.610       2.610       2.610       2.610    
 103    2.610       2.610       2.610       2.610       2.610       2.610       2.610       2.610       0.000       0.000    
        2.610       2.610       2.610       2.610       2.610       2.610       2.610       2.610       2.610       2.610    
        2.610       2.610       2.610       2.610       2.610       2.610       2.610       2.610       2.610       2.610    
        2.610       2.610       2.610       2.610       2.610       2.610       2.610       2.610       2.610       2.610    
        2.610       2.610       2.610       2.610       2.610       2.610       2.610       2.610       2.610       2.610    
        2.610       2.610       2.610       2.610       2.610       2.610       2.610       2.610       2.610       2.610    
        2.610       2.610       2.610       2.610       2.610       2.610       2.610       2.610       2.610       2.610    
        2.610       2.610       2.610       2.610       2.610       2.610    
 104    2.610       2.610       2.610       2.610       2.610       2.610       2.610       2.610       0.000       0.000    
        2.610       2.610       2.610       2.610       2.610       2.610       2.610       2.610       2.610       2.610    
        2.610       2.610       2.610       2.610       2.610       2.610       2.610       2.610       2.610       2.610    
        2.610       2.610       2.610       2.610       2.610       2.610       2.610       2.610       2.610       2.610    
        2.610       2.610       2.610       2.610       2.610       0.000       0.000       0.000       0.000       0.000    
        0.000       2.610       2.610       2.610       2.610       2.610       2.610       2.610       2.610       2.610    
        2.610       2.610       2.610       2.610       2.610       2.610       2.610       2.610       2.610       2.610    
        2.610       2.610       2.610       2.610       2.610       2.610    
 105    2.610       2.610       2.610       2.610       2.610       2.610       2.610       2.610       0.000       2.610    
        2.610       2.610       2.610       2.610       2.610       2.610       2.610       2.610       2.610       2.610    
        2.610       2.610       2.610       2.610       2.610       2.610       2.610       2.610       2.610       2.610    
        2.610       2.610       2.610       2.610       2.610       2.610       2.610       2.610       2.610       2.610    
        2.610       2.610       0.000       0.000       0.000       0.000       0.000       0.000       0.000       0.000    
        0.000       0.000       0.000       0.000       0.000       0.000       0.000       0.000       2.610       2.610    
        2.610       2.610       2.610       2.610       2.610       2.610       2.610       2.610       2.610       2.610    
        2.610       2.610       2.610       2.610       2.610       2.610    
 106    2.610       2.610       2.610       2.610       2.610       2.610       2.610       2.610       0.000       2.610    
        2.610       2.610       2.610       2.610       2.610       2.610       2.610       2.610       2.610       2.610    
        2.610       2.610       2.610       2.610       2.610       2.610       2.610       2.610       2.610       2.610    
        2.610       2.610       2.610       2.610       2.610       2.610       2.610       2.610       2.610       2.610    
        2.610       2.610       0.000       0.000       0.000       0.000       0.000       0.000       0.000       0.000    
        0.000       0.000       0.000       0.000       0.000       0.000       0.000       0.000       0.000       0.000    
        0.000       0.000       0.000       2.610       2.610       2.610       2.610       2.610       2.610       2.610    
        2.610       2.610       2.610       2.610       2.610       2.610    
 107    2.610       2.610       2.610       2.610       2.610       2.610       2.610       0.000       0.000       2.610    
        2.610       2.610       2.610       2.610       2.610       2.610       2.610       2.610       2.610       2.610    
        2.610       2.610       2.610       2.610       2.610       2.610       2.610       2.610       2.610       2.610    
        2.610       2.610       2.610       2.610       2.610       2.610       2.610       2.610       2.610       2.610    
        2.610       0.000       0.000       0.000       0.000       0.000       0.000       0.000       0.000       0.000    
        0.000       0.000       0.000       0.000       0.000       0.000       0.000       0.000       0.000       0.000    
        0.000       0.000       0.000       0.000       0.000       0.000       0.000       0.000       2.610       2.610    
        2.610       2.610       2.610       2.610       2.610       2.610    
 108    2.610       2.610       2.610       2.610       2.610       2.610       2.610       0.000       2.610       2.610    
        2.610       2.610       2.610       2.610       2.610       2.610       2.610       2.610       2.610       2.610    
        2.610       2.610       2.610       2.610       2.610       2.610       2.610       2.610       2.610       2.610    
        2.610       2.610       2.610       2.610       2.610       2.610       2.610       2.610       2.610       2.610    
        2.610       0.000       0.000       0.000       0.000       0.000       0.000       0.000       0.000       0.000    
        0.000       0.000       0.000       0.000       0.000       0.000       0.000       0.000       0.000       0.000    
        0.000       0.000       0.000       0.000       0.000       0.000       0.000       0.000       0.000       0.000    
        0.000       0.000       2.610       2.610       2.610       2.610    
 109    2.610       2.610       2.610       2.610       2.610       2.610       2.610       0.000       2.610       2.610    
        2.610       2.610       2.610       2.610       2.610       2.610       2.610       2.610       2.610       2.610    
        2.610       2.610       2.610       2.610       2.610       2.610       2.610       2.610       2.610       2.610    
        2.610       2.610       2.610       2.610       2.610       2.610       2.610       2.610       2.610       2.610    
        0.000       0.000       0.000       0.000       0.000       0.000       0.000       0.000       0.000       0.000    
        0.000       0.000       0.000       0.000       0.000       0.000       0.000       0.000       0.000       0.000    
        0.000       0.000       0.000       0.000       0.000       0.000       0.000       0.000       0.000       0.000    
        0.000       0.000       0.000       0.000       0.000       2.610    
 110    2.610       2.610       2.610       2.610       2.610       2.610       0.000       0.000       2.610       2.610    
        2.610       2.610       2.610       2.610       2.610       2.610       2.610       2.610       2.610       2.610    
        2.610       2.610       2.610       2.610       2.610       2.610       2.610       2.610       2.610       2.610    
        2.610       2.610       2.610       2.610       2.610       2.610       2.610       2.610       2.610       2.610    
        0.000       0.000       0.000       0.000       0.000       0.000       0.000       0.000       0.000       0.000    
        0.000       0.000       0.000       0.000       0.000       0.000       0.000       0.000       0.000       0.000    
        0.000       0.000       0.000       0.000       0.000       0.000       0.000       0.000       0.000       0.000    
        0.000       0.000       0.000       0.000       0.000       0.000    
 111    2.610       2.610       2.610       2.610       2.610       2.610       0.000       2.610       2.610       2.610    
        2.610       2.610       2.610       2.610       2.610       2.610       2.610       2.610       2.610       2.610    
        2.610       2.610       2.610       2.610       2.610       2.610       2.610       2.610       2.610       2.610    
        2.610       2.610       2.610       2.610       2.610       2.610       2.610       2.610       2.610       0.000    
        0.000       0.000       0.000       0.000       0.000       0.000       0.000       0.000       0.000       0.000    
        0.000       0.000       0.000       0.000       0.000       0.000       0.000       0.000       0.000       0.000    
        0.000       0.000       0.000       0.000       0.000       0.000       0.000       0.000       0.000       0.000    
        0.000       0.000       0.000       0.000       0.000       0.000    
 112    2.610       2.610       2.610       2.610       2.610       2.610       0.000       2.610       2.610       2.610    
        2.610       2.610       2.610       2.610       2.610       2.610       2.610       2.610       2.610       2.610    
        2.610       2.610       2.610       2.610       2.610       2.610       2.610       2.610       2.610       2.610    
        2.610       2.610       2.610       2.610       2.610       2.610       2.610       2.610       2.610       0.000    
        0.000       0.000       0.000       0.000       0.000       0.000       0.000       0.000       0.000       0.000    
        0.000       0.000       0.000       0.000       0.000       0.000       0.000       0.000       0.000       0.000    
        0.000       0.000       0.000       0.000       0.000       0.000       0.000       0.000       0.000       0.000    
        0.000       0.000       0.000       0.000       0.000       0.000    
 113    2.610       2.610       2.610       2.610       2.610       0.000       0.000       2.610       2.610       2.610    
        2.610       2.610       2.610       2.610       2.610       2.610       2.610       2.610       2.610       2.610    
        2.610       2.610       2.610       2.610       2.610       2.610       2.610       2.610       2.610       2.610    
        2.610       2.610       2.610       2.610       2.610       2.610       2.610       2.610       0.000       0.000    
        0.000       0.000       0.000       0.000       0.000       0.000       0.000       0.000       0.000       0.000    
        0.000       0.000       0.000       0.000       0.000       0.000       0.000       0.000       0.000       0.000    
        0.000       0.000       0.000       0.000       0.000       0.000       0.000       0.000       0.000       0.000    
        0.000       0.000       0.000       0.000       0.000       0.000    
 114    2.610       2.610       2.610       2.610       2.610       0.000       2.610       2.610       2.610       2.610    
        2.610       2.610       2.610       2.610       2.610       2.610       2.610       2.610       2.610       2.610    
        2.610       2.610       2.610       2.610       2.610       2.610       2.610       2.610       2.610       2.610    
        2.610       2.610       2.610       2.610       2.610       2.610       2.610       2.610       0.000       0.000    
        0.000       0.000       0.000       0.000       0.000       0.000       0.000       0.000       0.000       0.000    
        0.000       0.000       0.000       0.000       0.000       0.000       0.000       0.000       0.000       0.000    
        0.000       0.000       0.000       0.000       0.000       0.000       0.000       0.000       0.000       0.000    
        0.000       0.000       0.000       0.000       0.000       0.000    
 115    2.610       2.610       2.610       2.610       2.610       0.000       2.610       2.610       2.610       2.610    
        2.610       2.610       2.610       2.610       2.610       2.610       2.610       2.610       2.610       2.610    
        2.610       2.610       2.610       2.610       2.610       2.610       2.610       2.610       2.610       2.610    
        2.610       2.610       2.610       2.610       2.610       2.610       2.610       2.610       2.610       0.000    
        0.000       0.000       0.000       0.000       0.000       0.000       0.000       0.000       0.000       0.000    
        0.000       0.000       0.000       0.000       0.000       0.000       0.000       0.000       0.000       0.000    
        0.000       0.000       0.000       0.000       0.000       0.000       0.000       0.000       0.000       0.000    
        0.000       0.000       0.000       0.000       0.000       0.000    
 116    2.610       2.610       2.610       2.610       0.000       0.000       2.610       2.610       2.610       2.610    
        2.610       2.610       2.610       2.610       2.610       2.610       2.610       2.610       2.610       2.610    
        2.610       2.610       2.610       2.610       2.610       2.610       2.610       2.610       2.610       2.610    
        2.610       2.610       2.610       2.610       2.610       2.610       2.610       2.610       2.610       0.000    
        0.000       0.000       0.000       0.000       0.000       0.000       0.000       0.000       0.000       0.000    
        0.000       0.000       0.000       0.000       0.000       0.000       0.000       0.000       0.000       0.000    
        0.000       0.000       0.000       0.000       0.000       0.000       0.000       0.000       0.000       0.000    
        0.000       0.000       0.000       0.000       0.000       0.000    
 117    2.610       2.610       2.610       2.610       0.000       2.610       2.610       2.610       2.610       2.610    
        2.610       2.610       2.610       2.610       2.610       2.610       2.610       2.610       2.610       2.610    
        2.610       2.610       2.610       2.610       2.610       2.610       2.610       2.610       2.610       2.610    
        2.610       2.610       2.610       2.610       2.610       2.610       2.610       2.610       2.610       2.610    
        0.000       0.000       0.000       0.000       0.000       0.000       0.000       0.000       0.000       0.000    
        0.000       0.000       0.000       0.000       0.000       0.000       0.000       0.000       0.000       0.000    
        0.000       0.000       0.000       0.000       0.000       0.000       0.000       0.000       0.000       0.000    
        0.000       0.000       0.000       0.000       0.000       0.000    
 118    2.610       2.610       2.610       2.610       0.000       2.610       2.610       2.610       2.610       2.610    
        2.610       2.610       2.610       2.610       2.610       2.610       2.610       2.610       2.610       2.610    
        2.610       2.610       2.610       2.610       2.610       2.610       2.610       2.610       2.610       2.610    
        2.610       2.610       2.610       2.610       2.610       2.610       2.610       2.610       2.610       2.610    
        0.000       0.000       0.000       0.000       0.000       0.000       0.000       0.000       0.000       0.000    
        0.000       0.000       0.000       0.000       0.000       0.000       0.000       0.000       0.000       0.000    
        0.000       0.000       0.000       0.000       0.000       0.000       0.000       0.000       0.000       0.000    
        0.000       0.000       0.000       0.000       0.000       0.000    
 119    2.610       2.610       2.610       2.610       0.000       2.610       2.610       2.610       2.610       2.610    
        2.610       2.610       2.610       2.610       2.610       2.610       2.610       2.610       2.610       2.610    
        2.610       2.610       2.610       2.610       2.610       2.610       2.610       2.610       2.610       2.610    
        2.610       2.610       2.610       2.610       2.610       2.610       2.610       2.610       2.610       2.610    
        2.610       0.000       0.000       0.000       0.000       0.000       0.000       0.000       0.000       0.000    
        0.000       0.000       0.000       0.000       0.000       0.000       0.000       0.000       0.000       0.000    
        0.000       0.000       0.000       0.000       0.000       0.000       0.000       0.000       0.000       0.000    
        0.000       0.000       0.000       0.000       0.000       0.000    
 120    2.610       2.610       2.610       0.000       2.610       2.610       2.610       2.610       2.610       2.610    
        2.610       2.610       2.610       2.610       2.610       2.610       2.610       2.610       2.610       2.610    
        2.610       2.610       2.610       2.610       2.610       2.610       2.610       2.610       2.610       2.610    
        2.610       2.610       2.610       2.610       2.610       2.610       2.610       2.610       2.610       2.610    
        2.610       0.000       0.000       0.000       0.000       0.000       0.000       0.000       0.000       0.000    
        0.000       0.000       0.000       0.000       0.000       0.000       0.000       0.000       0.000       0.000    
        0.000       0.000       0.000       0.000       0.000       0.000       0.000       0.000       0.000       0.000    
        0.000       0.000       0.000       0.000       0.000       0.000    
 121    2.610       2.610       2.610       0.000       2.610       2.610       2.610       2.610       2.610       2.610    
        2.610       2.610       2.610       2.610       2.610       2.610       2.610       2.610       2.610       2.610    
        2.610       2.610       2.610       2.610       2.610       2.610       2.610       2.610       2.610       2.610    
        2.610       2.610       2.610       2.610       2.610       2.610       2.610       2.610       2.610       2.610    
        2.610       2.610       0.000       0.000       0.000       0.000       0.000       0.000       0.000       0.000    
        0.000       0.000       0.000       0.000       0.000       0.000       0.000       0.000       0.000       0.000    
        0.000       0.000       0.000       0.000       0.000       0.000       0.000       0.000       0.000       0.000    
        0.000       0.000       0.000       0.000       0.000       0.000    
 122    2.610       2.610       2.610       0.000       2.610       2.610       2.610       2.610       2.610       2.610    
        2.610       2.610       2.610       2.610       2.610       2.610       2.610       2.610       2.610       2.610    
        2.610       2.610       2.610       2.610       2.610       2.610       2.610       2.610       2.610       2.610    
        2.610       2.610       2.610       2.610       2.610       2.610       2.610       2.610       2.610       2.610    
        2.610       2.610       2.610       0.000       0.000       0.000       0.000       0.000       0.000       0.000    
        0.000       0.000       0.000       0.000       0.000       0.000       0.000       0.000       0.000       0.000    
        0.000       0.000       0.000       0.000       0.000       0.000       0.000       0.000       0.000       0.000    
        0.000       0.000       0.000       0.000       0.000       0.000    
 123    2.610       2.610       0.000       2.610       2.610       2.610       2.610       2.610       2.610       2.610    
        2.610       2.610       2.610       2.610       2.610       2.610       2.610       2.610       2.610       2.610    
        2.610       2.610       2.610       2.610       2.610       2.610       2.610       2.610       2.610       2.610    
        2.610       2.610       2.610       2.610       2.610       2.610       2.610       2.610       2.610       2.610    
        2.610       2.610       2.610       0.000       0.000       0.000       0.000       0.000       0.000       0.000    
        0.000       0.000       0.000       0.000       0.000       0.000       0.000       0.000       0.000       0.000    
        0.000       0.000       0.000       0.000       0.000       0.000       0.000       0.000       0.000       0.000    
        0.000       0.000       0.000       0.000       0.000       0.000    
 124    2.610       2.610       0.000       2.610       2.610       2.610       2.610       2.610       2.610       2.610    
        2.610       2.610       2.610       2.610       2.610       2.610       2.610       2.610       2.610       2.610    
        2.610       2.610       2.610       2.610       2.610       2.610       2.610       2.610       2.610       2.610    
        2.610       2.610       2.610       2.610       2.610       2.610       2.610       2.610       2.610       2.610    
        2.610       2.610       2.610       2.610       0.000       0.000       0.000       0.000       0.000       0.000    
        0.000       0.000       0.000       0.000       0.000       0.000       0.000       0.000       0.000       0.000    
        0.000       0.000       0.000       0.000       0.000       0.000       0.000       0.000       0.000       0.000    
        0.000       0.000       0.000       0.000       0.000       0.000    
 125    2.610       2.610       2.610       2.610       2.610       2.610       2.610       2.610       2.610       2.610    
        2.610       2.610       2.610       2.610       2.610       2.610       2.610       2.610       2.610       2.610    
        2.610       2.610       2.610       2.610       2.610       2.610       2.610       2.610       2.610       2.610    
        2.610       2.610       2.610       2.610       2.610       2.610       2.610       2.610       2.610       2.610    
        2.610       2.610       2.610       2.610       2.610       0.000       0.000       0.000       0.000       0.000    
        0.000       0.000       0.000       0.000       0.000       0.000       0.000       0.000       0.000       0.000    
        0.000       0.000       0.000       0.000       0.000       0.000       0.000       0.000       0.000       0.000    
        0.000       0.000       0.000       0.000       0.000       0.000    
 126    2.610       2.610       2.610       2.610       2.610       2.610       2.610       2.610       2.610       2.610    
        2.610       2.610       2.610       2.610       2.610       2.610       2.610       2.610       2.610       2.610    
        2.610       2.610       2.610       2.610       2.610       2.610       2.610       2.610       2.610       2.610    
        2.610       2.610       2.610       2.610       2.610       2.610       2.610       2.610       2.610       2.610    
        2.610       2.610       2.610       2.610       2.610       0.000       0.000       0.000       0.000       0.000    
        0.000       0.000       0.000       0.000       0.000       0.000       0.000       0.000       0.000       0.000    
        0.000       0.000       0.000       0.000       0.000       0.000       0.000       0.000       0.000       0.000    
        0.000       0.000       0.000       0.000       0.000       0.000    
 127    2.610       2.610       2.610       2.610       2.610       2.610       2.610       2.610       2.610       2.610    
        2.610       2.610       2.610       2.610       2.610       2.610       2.610       2.610       2.610       2.610    
        2.610       2.610       2.610       2.610       2.610       2.610       2.610       2.610       2.610       2.610    
        2.610       2.610       2.610       2.610       2.610       2.610       2.610       2.610       2.610       2.610    
        2.610       2.610       2.610       2.610       2.610       2.610       0.000       0.000       0.000       0.000    
        0.000       0.000       0.000       0.000       0.000       0.000       0.000       0.000       0.000       0.000    
        0.000       0.000       0.000       0.000       0.000       0.000       0.000       0.000       0.000       0.000    
        0.000       0.000       0.000       0.000       0.000       0.000    
 128    2.610       2.610       2.610       2.610       2.610       2.610       2.610       2.610       2.610       2.610    
        2.610       2.610       2.610       2.610       2.610       2.610       2.610       2.610       2.610       2.610    
        2.610       2.610       2.610       2.610       2.610       2.610       2.610       2.610       2.610       2.610    
        2.610       2.610       2.610       2.610       2.610       2.610       2.610       2.610       2.610       2.610    
        2.610       2.610       2.610       2.610       2.610       2.610       2.610       0.000       0.000       0.000    
        0.000       0.000       0.000       0.000       0.000       0.000       0.000       0.000       0.000       0.000    
        0.000       0.000       0.000       0.000       0.000       0.000       0.000       0.000       0.000       0.000    
        0.000       0.000       0.000       0.000       0.000       0.000    
 129    2.610       2.610       2.610       2.610       2.610       2.610       2.610       2.610       2.610       2.610    
        2.610       2.610       2.610       2.610       2.610       2.610       2.610       2.610       2.610       2.610    
        2.610       2.610       2.610       2.610       2.610       2.610       2.610       2.610       2.610       2.610    
        2.610       2.610       2.610       2.610       2.610       2.610       2.610       2.610       2.610       2.610    
        2.610       2.610       2.610       2.610       2.610       2.610       2.610       2.610       0.000       0.000    
        0.000       0.000       0.000       0.000       0.000       0.000       0.000       0.000       0.000       0.000    
        0.000       0.000       0.000       0.000       0.000       0.000       0.000       0.000       0.000       0.000    
        0.000       0.000       0.000       0.000       0.000       0.000    
 130    2.610       2.610       2.610       2.610       2.610       2.610       2.610       2.610       2.610       2.610    
        2.610       2.610       2.610       2.610       2.610       2.610       2.610       2.610       2.610       2.610    
        2.610       2.610       2.610       2.610       2.610       2.610       2.610       2.610       2.610       2.610    
        2.610       2.610       2.610       2.610       2.610       2.610       2.610       2.610       2.610       2.610    
        2.610       2.610       2.610       2.610       2.610       2.610       2.610       2.610       2.610       0.000    
        0.000       0.000       0.000       0.000       0.000       0.000       0.000       0.000       0.000       0.000    
        0.000       0.000       0.000       0.000       0.000       0.000       0.000       0.000       0.000       0.000    
        0.000       0.000       0.000       0.000       0.000       0.000    
 131    2.610       2.610       2.610       2.610       2.610       2.610       2.610       2.610       2.610       2.610    
        2.610       0.000       0.000       0.000       0.000       0.000       0.000       2.610       2.610       2.610    
        2.610       2.610       2.610       2.610       2.610       2.610       2.610       2.610       2.610       2.610    
        2.610       2.610       2.610       2.610       2.610       2.610       2.610       2.610       2.610       2.610    
        0.000       0.000       0.000       0.000       0.000       2.610       2.610       2.610       2.610       0.000    
        0.000       0.000       0.000       0.000       0.000       0.000       0.000       0.000       0.000       0.000    
        0.000       0.000       0.000       0.000       0.000       0.000       0.000       0.000       0.000       0.000    
        0.000       0.000       0.000       0.000       0.000       0.000    

         SPECIFIC STORAGE =  1.000000E-05 FOR LAYER   1

           SPECIFIC YIELD FOR LAYER   1 WILL BE DEFINED BY PARAMETERS
 (PRINT FLAG=  12)

           SPECIFIC YIELD is defined by the following parameters:
 sy01      
 sy02      


                     SPECIFIC YIELD FOR LAYER   1

            1           2           3           4           5           6           7           8           9          10
           11          12          13          14          15          16          17          18          19          20
           21          22          23          24          25          26          27          28          29          30
           31          32          33          34          35          36          37          38          39          40
           41          42          43          44          45          46          47          48          49          50
           51          52          53          54          55          56          57          58          59          60
           61          62          63          64          65          66          67          68          69          70
           71          72          73          74          75          76
 ........................................................................................................................
   1    0.000       0.000       0.000       0.000       0.000       0.000       0.000       0.000       0.000       0.000    
        0.000       0.000       0.000       0.000       0.000       0.000       0.000       0.000       0.000       0.000    
        0.000       0.000       0.000       0.000       0.000       0.000       0.000       0.000       0.000       0.000    
        0.000       0.000       0.000       0.000       0.000       0.000       0.000       0.000       0.000       0.000    
        0.000       0.000       0.000       0.000       0.000       0.000       0.000       0.000       0.000       0.000    
        0.000      0.1000      0.1000       0.000       0.000       0.000       0.000       0.000       0.000       0.000    
        0.000       0.000       0.000       0.000       0.000       0.000       0.000       0.000       0.000       0.000    
        0.000      0.1000      0.1000      0.1000       0.000      0.1000    
   2    0.000       0.000       0.000       0.000       0.000       0.000       0.000       0.000       0.000       0.000    
        0.000       0.000       0.000       0.000       0.000       0.000       0.000       0.000       0.000       0.000    
        0.000       0.000       0.000       0.000       0.000       0.000       0.000       0.000       0.000       0.000    
        0.000       0.000       0.000       0.000       0.000       0.000       0.000       0.000       0.000       0.000    
        0.000       0.000       0.000       0.000       0.000       0.000       0.000       0.000       0.000       0.000    
        0.000      0.1000      0.1000      0.1000       0.000       0.000       0.000       0.000       0.000       0.000    
        0.000       0.000       0.000       0.000       0.000       0.000       0.000      0.1000      0.1000      0.1000    
       0.1000      0.1000      0.1000      0.1000      0.1000      0.1000    
   3    0.000       0.000       0.000       0.000       0.000       0.000       0.000       0.000       0.000       0.000    
        0.000       0.000       0.000       0.000       0.000       0.000       0.000       0.000       0.000       0.000    
        0.000       0.000       0.000       0.000       0.000       0.000       0.000       0.000       0.000       0.000    
        0.000       0.000       0.000       0.000       0.000       0.000       0.000       0.000       0.000       0.000    
        0.000       0.000       0.000       0.000       0.000       0.000       0.000       0.000       0.000       0.000    
        0.000      0.1000      0.1000      0.1000       0.000       0.000       0.000       0.000       0.000       0.000    
        0.000       0.000      0.1000      0.1000      0.1000      0.1000      0.1000      0.1000      0.1000      0.1000    
       0.1000      0.1000      0.1000      0.1000      0.1000      0.1000    
   4    0.000       0.000       0.000       0.000       0.000       0.000       0.000       0.000       0.000       0.000    
        0.000       0.000       0.000       0.000       0.000       0.000       0.000       0.000       0.000       0.000    
        0.000       0.000       0.000       0.000       0.000       0.000       0.000       0.000       0.000       0.000    
        0.000       0.000       0.000       0.000       0.000       0.000       0.000       0.000       0.000       0.000    
        0.000       0.000       0.000       0.000       0.000       0.000       0.000       0.000       0.000       0.000    
       0.1000      0.1000      0.1000      0.1000      0.1000       0.000       0.000      0.1000      0.1000      0.1000    
       0.1000      0.1000      0.1000      0.1000      0.1000      0.1000      0.1000      0.1000      0.1000      0.1000    
       0.1000      0.1000      0.1000      0.1000      0.1000      0.1000    
   5    0.000       0.000       0.000       0.000       0.000       0.000       0.000       0.000       0.000       0.000    
        0.000       0.000       0.000       0.000       0.000       0.000       0.000       0.000       0.000       0.000    
        0.000       0.000       0.000       0.000       0.000       0.000       0.000       0.000       0.000       0.000    
        0.000       0.000       0.000       0.000       0.000       0.000       0.000       0.000       0.000       0.000    
        0.000       0.000       0.000       0.000       0.000       0.000       0.000       0.000       0.000       0.000    
       0.1000      0.1000      0.1000      0.1000      0.1000      0.1000      0.1000      0.1000      0.1000      0.1000    
       0.1000      0.1000      0.1000      0.1000      0.1000      0.1000      0.1000      0.1000      0.1000      0.1000    
       0.1000      0.1000      0.1000      0.1000      0.1000       0.000    
   6    0.000       0.000       0.000       0.000       0.000       0.000       0.000       0.000       0.000       0.000    
        0.000       0.000       0.000       0.000       0.000       0.000       0.000       0.000       0.000       0.000    
        0.000       0.000       0.000       0.000       0.000       0.000       0.000       0.000       0.000       0.000    
        0.000       0.000       0.000       0.000       0.000       0.000       0.000       0.000       0.000       0.000    
        0.000       0.000       0.000       0.000       0.000       0.000       0.000       0.000       0.000      0.1000    
       0.1000      0.1000      0.1000      0.1000      0.1000      0.1000      0.1000      0.1000      0.1000      0.1000    
       0.1000      0.1000      0.1000      0.1000      0.1000      0.1000      0.1000      0.1000      0.1000      0.1000    
       0.1000      0.1000      0.1000      0.1000      0.1000       0.000    
   7    0.000       0.000       0.000       0.000       0.000       0.000       0.000       0.000       0.000       0.000    
        0.000       0.000       0.000       0.000       0.000       0.000       0.000       0.000       0.000       0.000    
        0.000       0.000       0.000       0.000       0.000       0.000       0.000       0.000       0.000       0.000    
        0.000       0.000       0.000       0.000       0.000       0.000       0.000       0.000       0.000       0.000    
        0.000       0.000       0.000       0.000       0.000       0.000       0.000       0.000       0.000      0.1000    
       0.1000      0.1000      0.1000      0.1000      0.1000      0.1000      0.1000      0.1000      0.1000      0.1000    
       0.1000      0.1000      0.1000      0.1000      0.1000      0.1000      0.1000      0.1000      0.1000      0.1000    
       0.1000      0.1000      0.1000      0.1000      0.1000       0.000    
   8    0.000       0.000       0.000       0.000       0.000       0.000       0.000       0.000       0.000       0.000    
        0.000       0.000       0.000       0.000       0.000       0.000       0.000       0.000       0.000       0.000    
        0.000       0.000       0.000       0.000       0.000       0.000       0.000       0.000       0.000       0.000    
        0.000       0.000       0.000       0.000       0.000       0.000       0.000       0.000       0.000       0.000    
        0.000       0.000       0.000       0.000       0.000       0.000       0.000       0.000      0.1000      0.1000    
       0.1000      0.1000      0.1000      0.1000      0.1000      0.1000      0.1000      0.1000      0.1000      0.1000    
       0.1000      0.1000      0.1000      0.1000      0.1000      0.1000      0.1000      0.1000      0.1000      0.1000    
       0.1000      0.1000      0.1000      0.1000      0.1000      0.1000    
   9    0.000       0.000       0.000       0.000       0.000       0.000       0.000       0.000       0.000       0.000    
        0.000       0.000       0.000       0.000       0.000       0.000       0.000       0.000       0.000       0.000    
        0.000       0.000       0.000       0.000       0.000       0.000       0.000       0.000       0.000       0.000    
        0.000       0.000       0.000       0.000       0.000       0.000       0.000       0.000       0.000       0.000    
        0.000       0.000       0.000       0.000       0.000       0.000       0.000      0.1000      0.1000      0.1000    
       0.1000      0.1000      0.1000      0.1000      0.1000      0.1000      0.1000      0.1000      0.1000      0.1000    
       0.1000      0.1000      0.1000      0.1000      0.1000      0.1000      0.1000      0.1000      0.1000      0.1000    
       0.1000      0.1000      0.1000      0.1000      0.1000      0.1000    
  10    0.000       0.000       0.000       0.000       0.000       0.000       0.000       0.000       0.000       0.000    
        0.000       0.000       0.000       0.000       0.000       0.000       0.000       0.000       0.000       0.000    
        0.000       0.000       0.000       0.000       0.000       0.000       0.000       0.000       0.000       0.000    
        0.000       0.000       0.000       0.000       0.000       0.000       0.000       0.000       0.000       0.000    
        0.000       0.000       0.000       0.000       0.000       0.000      0.1000      0.1000      0.1000      0.1000    
       0.1000      0.1000      0.1000      0.1000      0.1000      0.1000      0.1000      0.1000      0.1000      0.1000    
       0.1000      0.1000      0.1000      0.1000      0.1000      0.1000      0.1000      0.1000      0.1000      0.1000    
       0.1000      0.1000      0.1000      0.1000      0.1000      0.1000    
  11    0.000       0.000       0.000       0.000       0.000       0.000       0.000       0.000       0.000       0.000    
        0.000       0.000       0.000       0.000       0.000       0.000       0.000       0.000       0.000       0.000    
        0.000       0.000       0.000       0.000       0.000       0.000       0.000       0.000       0.000       0.000    
        0.000       0.000       0.000       0.000       0.000       0.000       0.000       0.000       0.000       0.000    
        0.000       0.000       0.000       0.000       0.000      0.1000      0.1000      0.1000      0.1000      0.1000    
       0.1000      0.1000      0.1000      0.1000      0.1000      0.1000      0.1000      0.1000      0.1000      0.1000    
       0.1000      0.1000      0.1000      0.1000      0.1000      0.1000      0.1000      0.1000      0.1000      0.1000    
       0.1000      0.1000      0.1000      0.1000      0.1000       0.000    
  12    0.000       0.000       0.000       0.000       0.000       0.000       0.000       0.000       0.000       0.000    
        0.000       0.000       0.000       0.000       0.000       0.000       0.000       0.000       0.000       0.000    
        0.000       0.000       0.000       0.000       0.000       0.000       0.000       0.000       0.000       0.000    
        0.000       0.000       0.000       0.000       0.000       0.000       0.000       0.000       0.000       0.000    
        0.000       0.000       0.000       0.000      0.1000      0.1000      0.1000      0.1000      0.1000      0.1000    
       0.1000      0.1000      0.1000      0.1000      0.1000      0.1000      0.1000      0.1000      0.1000      0.1000    
       0.1000      0.1000      0.1000      0.1000      0.1000      0.1000      0.1000      0.1000      0.1000      0.1000    
       0.1000      0.1000      0.1000      0.1000      0.1000       0.000    
  13    0.000       0.000       0.000       0.000       0.000       0.000       0.000       0.000       0.000       0.000    
        0.000       0.000       0.000       0.000       0.000       0.000       0.000       0.000       0.000       0.000    
        0.000       0.000       0.000       0.000       0.000       0.000       0.000       0.000       0.000       0.000    
        0.000       0.000       0.000       0.000       0.000       0.000       0.000       0.000       0.000       0.000    
        0.000       0.000       0.000      0.1000      0.1000      0.1000      0.1000      0.1000      0.1000      0.1000    
       0.1000      0.1000      0.1000      0.1000      0.1000      0.1000      0.1000      0.1000      0.1000      0.1000    
       0.1000      0.1000      0.1000      0.1000      0.1000      0.1000      0.1000      0.1000      0.1000      0.1000    
       0.1000      0.1000      0.1000      0.1000      0.1000       0.000    
  14    0.000       0.000       0.000       0.000       0.000       0.000       0.000       0.000       0.000       0.000    
        0.000       0.000       0.000       0.000       0.000       0.000       0.000       0.000       0.000       0.000    
        0.000       0.000       0.000       0.000       0.000       0.000       0.000       0.000       0.000       0.000    
        0.000       0.000       0.000       0.000       0.000       0.000       0.000       0.000       0.000       0.000    
        0.000       0.000      0.1000      0.1000      0.1000      0.1000      0.1000      0.1000      0.1000      0.1000    
       0.1000      0.1000      0.1000      0.1000      0.1000      0.1000      0.1000      0.1000      0.1000      0.1000    
       0.1000      0.1000      0.1000      0.1000      0.1000      0.1000      0.1000      0.1000      0.1000      0.1000    
       0.1000      0.1000      0.1000      0.1000      0.1000      0.1000    
  15    0.000       0.000       0.000       0.000       0.000       0.000       0.000       0.000       0.000       0.000    
        0.000       0.000       0.000       0.000       0.000       0.000       0.000       0.000       0.000       0.000    
        0.000       0.000       0.000       0.000       0.000       0.000       0.000       0.000       0.000       0.000    
        0.000       0.000       0.000       0.000       0.000       0.000       0.000       0.000       0.000       0.000    
        0.000      0.1000      0.1000      0.1000      0.1000      0.1000      0.1000      0.1000      0.1000      0.1000    
       0.1000      0.1000      0.1000      0.1000      0.1000      0.1000      0.1000      0.1000      0.1000      0.1000    
       0.1000      0.1000      0.1000      0.1000      0.1000      0.1000      0.1000      0.1000      0.1000      0.1000    
       0.1000      0.1000      0.1000      0.1000      0.1000      0.1000    
  16    0.000       0.000       0.000       0.000       0.000       0.000       0.000       0.000       0.000       0.000    
        0.000       0.000       0.000       0.000       0.000       0.000       0.000       0.000       0.000       0.000    
        0.000       0.000       0.000       0.000       0.000       0.000       0.000       0.000       0.000       0.000    
        0.000       0.000       0.000       0.000       0.000       0.000       0.000       0.000       0.000       0.000    
       0.1000      0.1000      0.1000      0.1000      0.1000      0.1000      0.1000      0.1000      0.1000      0.1000    
       0.1000      0.1000      0.1000      0.1000      0.1000      0.1000      0.1000      0.1000      0.1000      0.1000    
       0.1000      0.1000      0.1000      0.1000      0.1000      0.1000      0.1000      0.1000      0.1000      0.1000    
       0.1000      0.1000      0.1000      0.1000      0.1000       0.000    
  17    0.000       0.000       0.000       0.000       0.000       0.000       0.000       0.000       0.000       0.000    
        0.000       0.000       0.000       0.000       0.000       0.000       0.000       0.000       0.000       0.000    
        0.000       0.000       0.000       0.000       0.000       0.000       0.000       0.000       0.000       0.000    
        0.000       0.000       0.000       0.000       0.000       0.000       0.000       0.000       0.000      0.1000    
       0.1000      0.1000      0.1000      0.1000      0.1000      0.1000      0.1000      0.1000      0.1000      0.1000    
       0.1000      0.1000      0.1000      0.1000      0.1000      0.1000      0.1000      0.1000      0.1000      0.1000    
       0.1000      0.1000      0.1000      0.1000      0.1000      0.1000      0.1000      0.1000      0.1000      0.1000    
       0.1000      0.1000      0.1000      0.1000      0.1000      0.1000    
  18    0.000       0.000       0.000       0.000       0.000       0.000       0.000       0.000       0.000       0.000    
        0.000       0.000       0.000       0.000       0.000       0.000       0.000       0.000       0.000       0.000    
        0.000       0.000       0.000       0.000       0.000       0.000       0.000       0.000       0.000       0.000    
        0.000       0.000       0.000       0.000       0.000       0.000       0.000       0.000      0.1000      0.1000    
       0.1000      0.1000      0.1000      0.1000      0.1000      0.1000      0.1000      0.1000      0.1000      0.1000    
       0.1000      0.1000      0.1000      0.1000      0.1000      0.1000      0.1000      0.1000      0.1000      0.1000    
       0.1000      0.1000      0.1000      0.1000      0.1000      0.1000      0.1000      0.1000      0.1000      0.1000    
       0.1000      0.1000      0.1000      0.1000      0.1000      0.1000    
  19    0.000       0.000       0.000       0.000       0.000       0.000       0.000       0.000       0.000       0.000    
        0.000       0.000       0.000       0.000       0.000       0.000       0.000       0.000       0.000       0.000    
        0.000       0.000       0.000       0.000       0.000       0.000       0.000       0.000       0.000       0.000    
        0.000       0.000       0.000       0.000       0.000       0.000       0.000      0.1000      0.1000      0.1000    
       0.1000      0.1000      0.1000      0.1000      0.1000      0.1000      0.1000      0.1000      0.1000      0.1000    
       0.1000      0.1000      0.1000      0.1000      0.1000      0.1000      0.1000      0.1000      0.1000      0.1000    
       0.1000      0.1000      0.1000      0.1000      0.1000      0.1000      0.1000      0.1000      0.1000      0.1000    
       0.1000      0.1000      0.1000      0.1000      0.1000      0.1000    
  20    0.000       0.000       0.000       0.000       0.000       0.000       0.000       0.000       0.000       0.000    
        0.000       0.000       0.000       0.000       0.000       0.000       0.000       0.000       0.000       0.000    
        0.000       0.000       0.000       0.000       0.000       0.000       0.000       0.000       0.000       0.000    
        0.000       0.000       0.000       0.000       0.000       0.000      0.1000      0.1000      0.1000      0.1000    
       0.1000      0.1000      0.1000      0.1000      0.1000      0.1000      0.1000      0.1000      0.1000      0.1000    
       0.1000      0.1000      0.1000      0.1000      0.1000      0.1000      0.1000      0.1000      0.1000      0.1000    
       0.1000      0.1000      0.1000      0.1000      0.1000      0.1000      0.1000      0.1000      0.1000      0.1000    
       0.1000      0.1000      0.1000      0.1000      0.1000      0.1000    
  21   0.1000      0.1000       0.000       0.000       0.000       0.000       0.000       0.000       0.000       0.000    
        0.000       0.000       0.000       0.000       0.000       0.000       0.000       0.000       0.000       0.000    
        0.000       0.000       0.000       0.000       0.000       0.000       0.000       0.000       0.000       0.000    
        0.000       0.000       0.000       0.000       0.000      0.1000      0.1000      0.1000      0.1000      0.1000    
       0.1000      0.1000      0.1000      0.1000      0.1000      0.1000      0.1000      0.1000      0.1000      0.1000    
       0.1000      0.1000      0.1000      0.1000      0.1000      0.1000      0.1000      0.1000      0.1000      0.1000    
       0.1000      0.1000      0.1000      0.1000      0.1000      0.1000      0.1000      0.1000      0.1000      0.1000    
       0.1000      0.1000      0.1000      0.1000      0.1000      0.1000    
  22   0.1000      0.1000      0.1000      0.1000      0.1000       0.000       0.000       0.000       0.000       0.000    
        0.000       0.000       0.000       0.000       0.000       0.000       0.000       0.000       0.000       0.000    
        0.000       0.000       0.000       0.000       0.000       0.000       0.000       0.000       0.000       0.000    
        0.000       0.000      0.1000      0.1000      0.1000      0.1000      0.1000      0.1000      0.1000      0.1000    
       0.1000      0.1000      0.1000      0.1000      0.1000      0.1000      0.1000      0.1000      0.1000      0.1000    
       0.1000      0.1000      0.1000      0.1000      0.1000      0.1000      0.1000      0.1000      0.1000      0.1000    
       0.1000      0.1000      0.1000      0.1000      0.1000      0.1000      0.1000      0.1000      0.1000      0.1000    
       0.1000      0.1000      0.1000      0.1000      0.1000      0.1000    
  23   0.1000      0.1000      0.1000      0.1000      0.1000      0.1000      0.1000       0.000       0.000       0.000    
        0.000       0.000       0.000       0.000       0.000       0.000       0.000       0.000       0.000       0.000    
        0.000       0.000       0.000       0.000       0.000       0.000       0.000       0.000       0.000       0.000    
        0.000       0.000      0.1000      0.1000      0.1000      0.1000      0.1000      0.1000      0.1000      0.1000    
       0.1000      0.1000      0.1000      0.1000      0.1000      0.1000      0.1000      0.1000      0.1000      0.1000    
       0.1000      0.1000      0.1000      0.1000      0.1000      0.1000      0.1000      0.1000      0.1000      0.1000    
       0.1000      0.1000      0.1000      0.1000      0.1000      0.1000      0.1000      0.1000      0.1000      0.1000    
       0.1000      0.1000      0.1000      0.1000      0.1000      0.1000    
  24   0.1000      0.1000      0.1000      0.1000      0.1000      0.1000      0.1000      0.1000      0.1000      0.1000    
        0.000       0.000       0.000       0.000       0.000       0.000       0.000       0.000       0.000       0.000    
        0.000       0.000       0.000       0.000       0.000       0.000       0.000       0.000       0.000       0.000    
        0.000       0.000      0.1000      0.1000      0.1000      0.1000      0.1000      0.1000      0.1000      0.1000    
       0.1000      0.1000      0.1000      0.1000      0.1000      0.1000      0.1000      0.1000      0.1000      0.1000    
       0.1000      0.1000      0.1000      0.1000      0.1000      0.1000      0.1000      0.1000      0.1000      0.1000    
       0.1000      0.1000      0.1000      0.1000      0.1000      0.1000      0.1000      0.1000      0.1000      0.1000    
       0.1000      0.1000      0.1000      0.1000      0.1000      0.1000    
  25   0.1000      0.1000      0.1000      0.1000      0.1000      0.1000      0.1000      0.1000      0.1000      0.1000    
       0.1000      0.1000      0.1000       0.000       0.000       0.000       0.000       0.000       0.000       0.000    
        0.000       0.000       0.000       0.000       0.000       0.000       0.000       0.000       0.000      0.1000    
       0.1000      0.1000      0.1000      0.1000      0.1000      0.1000      0.1000      0.1000      0.1000      0.1000    
       0.1000      0.1000      0.1000      0.1000      0.1000      0.1000      0.1000      0.1000      0.1000      0.1000    
       0.1000      0.1000      0.1000      0.1000      0.1000      0.1000      0.1000      0.1000      0.1000      0.1000    
       0.1000      0.1000      0.1000      0.1000      0.1000      0.1000      0.1000      0.1000      0.1000      0.1000    
       0.1000      0.1000      0.1000      0.1000      0.1000      0.1000    
  26   0.1000      0.1000      0.1000      0.1000      0.1000      0.1000      0.1000      0.1000      0.1000      0.1000    
       0.1000      0.1000      0.1000      0.1000      0.1000      0.1000      0.1000       0.000       0.000       0.000    
        0.000       0.000       0.000       0.000       0.000       0.000      0.1000      0.1000      0.1000      0.1000    
       0.1000      0.1000      0.1000      0.1000      0.1000      0.1000      0.1000      0.1000      0.1000      0.1000    
       0.1000      0.1000      0.1000      0.1000      0.1000      0.1000      0.1000      0.1000      0.1000      0.1000    
       0.1000      0.1000      0.1000      0.1000      0.1000      0.1000      0.1000      0.1000      0.1000      0.1000    
       0.1000      0.1000      0.1000      0.1000      0.1000      0.1000      0.1000      0.1000      0.1000      0.1000    
       0.1000      0.1000      0.1000      0.1000      0.1000      0.1000    
  27   0.1000      0.1000      0.1000      0.1000      0.1000      0.1000      0.1000      0.1000      0.1000      0.1000    
       0.1000      0.1000      0.1000      0.1000      0.1000      0.1000      0.1000      0.1000      0.1000      0.1000    
       0.1000      0.1000      0.1000      0.1000      0.1000      0.1000      0.1000      0.1000      0.1000      0.1000    
       0.1000      0.1000      0.1000      0.1000      0.1000      0.1000      0.1000      0.1000      0.1000      0.1000    
       0.1000      0.1000      0.1000      0.1000      0.1000      0.1000      0.1000      0.1000      0.1000      0.1000    
       0.1000      0.1000      0.1000      0.1000      0.1000      0.1000      0.1000      0.1000      0.1000      0.1000    
       0.1000      0.1000      0.1000      0.1000      0.1000      0.1000      0.1000      0.1000      0.1000      0.1000    
       0.1000      0.1000      0.1000      0.1000      0.1000       0.000    
  28   0.1000      0.1000      0.1000      0.1000      0.1000      0.1000      0.1000      0.1000      0.1000      0.1000    
       0.1000      0.1000      0.1000      0.1000      0.1000      0.1000      0.1000      0.1000      0.1000      0.1000    
       0.1000      0.1000      0.1000      0.1000      0.1000      0.1000      0.1000      0.1000      0.1000      0.1000    
       0.1000      0.1000      0.1000      0.1000      0.1000      0.1000      0.1000      0.1000      0.1000      0.1000    
       0.1000      0.1000      0.1000      0.1000      0.1000      0.1000      0.1000      0.1000      0.1000      0.1000    
       0.1000      0.1000      0.1000      0.1000      0.1000      0.1000      0.1000      0.1000      0.1000      0.1000    
       0.1000      0.1000      0.1000      0.1000      0.1000      0.1000      0.1000      0.1000      0.1000      0.1000    
       0.1000      0.1000      0.1000      0.1000      0.1000       0.000    
  29   0.1000      0.1000      0.1000      0.1000      0.1000      0.1000      0.1000      0.1000      0.1000      0.1000    
       0.1000      0.1000      0.1000      0.1000      0.1000      0.1000      0.1000      0.1000      0.1000      0.1000    
       0.1000      0.1000      0.1000      0.1000      0.1000      0.1000      0.1000      0.1000      0.1000      0.1000    
       0.1000      0.1000      0.1000      0.1000      0.1000      0.1000      0.1000      0.1000      0.1000      0.1000    
       0.1000      0.1000      0.1000      0.1000      0.1000      0.1000      0.1000      0.1000      0.1000      0.1000    
       0.1000      0.1000      0.1000      0.1000      0.1000      0.1000      0.1000      0.1000      0.1000      0.1000    
       0.1000      0.1000      0.1000      0.1000      0.1000      0.1000      0.1000      0.1000      0.1000      0.1000    
       0.1000      0.1000      0.1000      0.1000      0.1000       0.000    
  30   0.1000      0.1000      0.1000      0.1000      0.1000      0.1000      0.1000      0.1000      0.1000      0.1000    
       0.1000      0.1000      0.1000      0.1000      0.1000      0.1000      0.1000      0.1000      0.1000      0.1000    
       0.1000      0.1000      0.1000      0.1000      0.1000      0.1000      0.1000      0.1000      0.1000      0.1000    
       0.1000      0.1000      0.1000      0.1000      0.1000      0.1000      0.1000      0.1000      0.1000      0.1000    
       0.1000      0.1000      0.1000      0.1000      0.1000      0.1000      0.1000      0.1000      0.1000      0.1000    
       0.1000      0.1000      0.1000      0.1000      0.1000      0.1000      0.1000      0.1000      0.1000      0.1000    
       0.1000      0.1000      0.1000      0.1000      0.1000      0.1000      0.1000      0.1000      0.1000      0.1000    
       0.1000      0.1000      0.1000      0.1000      0.1000       0.000    
  31   0.1000      0.1000      0.1000      0.1000      0.1000      0.1000      0.1000      0.1000      0.1000      0.1000    
       0.1000      0.1000      0.1000      0.1000      0.1000      0.1000      0.1000      0.1000      0.1000      0.1000    
       0.1000      0.1000      0.1000      0.1000      0.1000      0.1000      0.1000      0.1000      0.1000      0.1000    
       0.1000      0.1000      0.1000      0.1000      0.1000      0.1000      0.1000      0.1000      0.1000      0.1000    
       0.1000      0.1000      0.1000      0.1000      0.1000      0.1000      0.1000      0.1000      0.1000      0.1000    
       0.1000      0.1000      0.1000      0.1000      0.1000      0.1000      0.1000      0.1000      0.1000      0.1000    
       0.1000      0.1000      0.1000      0.1000      0.1000      0.1000      0.1000      0.1000      0.1000      0.1000    
       0.1000      0.1000      0.1000      0.1000       0.000       0.000    
  32    0.000      0.1000      0.1000      0.1000      0.1000      0.1000      0.1000      0.1000      0.1000      0.1000    
       0.1000      0.1000      0.1000      0.1000      0.1000      0.1000      0.1000      0.1000      0.1000      0.1000    
       0.1000      0.1000      0.1000      0.1000      0.1000      0.1000      0.1000      0.1000      0.1000      0.1000    
       0.1000      0.1000      0.1000      0.1000      0.1000      0.1000      0.1000      0.1000      0.1000      0.1000    
       0.1000      0.1000      0.1000      0.1000      0.1000      0.1000      0.1000      0.1000      0.1000      0.1000    
       0.1000      0.1000      0.1000      0.1000      0.1000      0.1000      0.1000      0.1000      0.1000      0.1000    
       0.1000      0.1000      0.1000      0.1000      0.1000      0.1000      0.1000      0.1000      0.1000      0.1000    
       0.1000      0.1000      0.1000      0.1000       0.000       0.000    
  33    0.000       0.000       0.000      0.1000      0.1000      0.1000      0.1000      0.1000      0.1000      0.1000    
       0.1000      0.1000      0.1000      0.1000      0.1000      0.1000      0.1000      0.1000      0.1000      0.1000    
       0.1000      0.1000      0.1000      0.1000      0.1000      0.1000      0.1000      0.1000      0.1000      0.1000    
       0.1000      0.1000      0.1000      0.1000      0.1000      0.1000      0.1000      0.1000      0.1000      0.1000    
       0.1000      0.1000      0.1000      0.1000      0.1000      0.1000      0.1000      0.1000      0.1000      0.1000    
       0.1000      0.1000      0.1000      0.1000      0.1000      0.1000      0.1000      0.1000      0.1000      0.1000    
       0.1000      0.1000      0.1000      0.1000      0.1000      0.1000      0.1000      0.1000      0.1000      0.1000    
       0.1000      0.1000      0.1000       0.000       0.000       0.000    
  34    0.000       0.000       0.000       0.000       0.000      0.1000      0.1000      0.1000      0.1000      0.1000    
       0.1000      0.1000      0.1000      0.1000      0.1000      0.1000      0.1000      0.1000      0.1000      0.1000    
       0.1000      0.1000      0.1000      0.1000      0.1000      0.1000      0.1000      0.1000      0.1000      0.1000    
       0.1000      0.1000      0.1000      0.1000      0.1000      0.1000      0.1000      0.1000      0.1000      0.1000    
       0.1000      0.1000      0.1000      0.1000      0.1000      0.1000      0.1000      0.1000      0.1000      0.1000    
       0.1000      0.1000      0.1000      0.1000      0.1000      0.1000      0.1000      0.1000      0.1000      0.1000    
       0.1000      0.1000      0.1000      0.1000      0.1000      0.1000      0.1000      0.1000      0.1000      0.1000    
       0.1000      0.1000      0.1000       0.000       0.000       0.000    
  35    0.000       0.000       0.000       0.000       0.000       0.000      0.1000      0.1000      0.1000      0.1000    
       0.1000      0.1000      0.1000      0.1000      0.1000      0.1000      0.1000      0.1000      0.1000      0.1000    
       0.1000      0.1000      0.1000      0.1000      0.1000      0.1000      0.1000      0.1000      0.1000      0.1000    
       0.1000      0.1000      0.1000      0.1000      0.1000      0.1000      0.1000      0.1000      0.1000      0.1000    
       0.1000      0.1000      0.1000      0.1000      0.1000      0.1000      0.1000      0.1000      0.1000      0.1000    
       0.1000      0.1000      0.1000      0.1000      0.1000      0.1000      0.1000      0.1000      0.1000      0.1000    
       0.1000      0.1000      0.1000      0.1000      0.1000      0.1000      0.1000      0.1000      0.1000      0.1000    
       0.1000      0.1000       0.000       0.000       0.000       0.000    
  36    0.000       0.000       0.000       0.000       0.000       0.000       0.000       0.000      0.1000      0.1000    
       0.1000      0.1000      0.1000      0.1000      0.1000      0.1000      0.1000      0.1000      0.1000      0.1000    
       0.1000      0.1000      0.1000      0.1000      0.1000      0.1000      0.1000      0.1000      0.1000      0.1000    
       0.1000      0.1000      0.1000      0.1000      0.1000      0.1000      0.1000      0.1000      0.1000      0.1000    
       0.1000      0.1000      0.1000      0.1000      0.1000      0.1000      0.1000      0.1000      0.1000      0.1000    
       0.1000      0.1000      0.1000      0.1000      0.1000      0.1000      0.1000      0.1000      0.1000      0.1000    
       0.1000      0.1000      0.1000      0.1000      0.1000      0.1000      0.1000      0.1000      0.1000      0.1000    
       0.1000      0.1000       0.000       0.000       0.000       0.000    
  37   0.1000      0.1000      0.1000       0.000       0.000       0.000       0.000       0.000       0.000       0.000    
       0.1000      0.1000      0.1000      0.1000      0.1000      0.1000      0.1000      0.1000      0.1000      0.1000    
       0.1000      0.1000      0.1000      0.1000      0.1000      0.1000      0.1000      0.1000      0.1000      0.1000    
       0.1000      0.1000      0.1000      0.1000      0.1000      0.1000      0.1000      0.1000      0.1000      0.1000    
       0.1000      0.1000      0.1000      0.1000      0.1000      0.1000      0.1000      0.1000      0.1000      0.1000    
       0.1000      0.1000      0.1000      0.1000      0.1000      0.1000      0.1000      0.1000      0.1000      0.1000    
       0.1000      0.1000      0.1000      0.1000      0.1000      0.1000      0.1000      0.1000      0.1000      0.1000    
       0.1000      0.1000       0.000       0.000       0.000       0.000    
  38   0.1000      0.1000      0.1000      0.1000      0.1000      0.1000      0.1000       0.000       0.000       0.000    
        0.000      0.1000      0.1000      0.1000      0.1000      0.1000      0.1000      0.1000      0.1000      0.1000    
       0.1000      0.1000      0.1000      0.1000      0.1000      0.1000      0.1000      0.1000      0.1000      0.1000    
       0.1000      0.1000      0.1000      0.1000      0.1000      0.1000      0.1000      0.1000      0.1000      0.1000    
       0.1000      0.1000      0.1000      0.1000      0.1000      0.1000      0.1000      0.1000      0.1000      0.1000    
       0.1000      0.1000      0.1000      0.1000      0.1000      0.1000      0.1000      0.1000      0.1000      0.1000    
       0.1000      0.1000      0.1000      0.1000      0.1000      0.1000      0.1000      0.1000      0.1000       0.000    
       0.1000      0.1000       0.000       0.000       0.000       0.000    
  39   0.1000      0.1000      0.1000      0.1000      0.1000      0.1000      0.1000      0.1000      0.1000      0.1000    
       0.1000       0.000       0.000      0.1000      0.1000      0.1000      0.1000      0.1000      0.1000      0.1000    
       0.1000      0.1000      0.1000      0.1000      0.1000      0.1000      0.1000      0.1000      0.1000      0.1000    
       0.1000      0.1000      0.1000      0.1000      0.1000      0.1000      0.1000      0.1000      0.1000      0.1000    
       0.1000      0.1000      0.1000      0.1000      0.1000      0.1000      0.1000      0.1000      0.1000      0.1000    
       0.1000      0.1000      0.1000      0.1000      0.1000      0.1000      0.1000      0.1000      0.1000      0.1000    
       0.1000      0.1000      0.1000      0.1000      0.1000      0.1000      0.1000      0.1000      0.1000      0.1000    
       0.1000       0.000       0.000       0.000       0.000       0.000    
  40   0.1000      0.1000      0.1000      0.1000      0.1000      0.1000      0.1000      0.1000      0.1000      0.1000    
       0.1000      0.1000      0.1000      0.1000      0.1000      0.1000      0.1000      0.1000      0.1000      0.1000    
       0.1000      0.1000      0.1000      0.1000      0.1000      0.1000      0.1000      0.1000      0.1000      0.1000    
       0.1000      0.1000      0.1000      0.1000      0.1000      0.1000      0.1000      0.1000      0.1000      0.1000    
       0.1000      0.1000      0.1000      0.1000      0.1000      0.1000      0.1000      0.1000      0.1000      0.1000    
       0.1000      0.1000      0.1000      0.1000      0.1000      0.1000      0.1000      0.1000      0.1000      0.1000    
       0.1000      0.1000      0.1000      0.1000      0.1000      0.1000      0.1000      0.1000      0.1000      0.1000    
       0.1000       0.000       0.000       0.000       0.000       0.000    
  41   0.1000      0.1000      0.1000      0.1000      0.1000      0.1000      0.1000      0.1000      0.1000      0.1000    
       0.1000      0.1000      0.1000      0.1000      0.1000      0.1000      0.1000      0.1000      0.1000      0.1000    
       0.1000      0.1000      0.1000      0.1000      0.1000      0.1000      0.1000      0.1000      0.1000      0.1000    
       0.1000      0.1000      0.1000      0.1000      0.1000      0.1000      0.1000      0.1000      0.1000      0.1000    
       0.1000      0.1000      0.1000      0.1000      0.1000      0.1000      0.1000      0.1000      0.1000      0.1000    
       0.1000      0.1000      0.1000      0.1000      0.1000      0.1000      0.1000      0.1000      0.1000      0.1000    
       0.1000      0.1000      0.1000      0.1000      0.1000      0.1000      0.1000      0.1000      0.1000      0.1000    
       0.1000      0.1000       0.000       0.000       0.000       0.000    
  42   0.1000      0.1000      0.1000      0.1000      0.1000      0.1000      0.1000      0.1000      0.1000      0.1000    
       0.1000      0.1000      0.1000      0.1000      0.1000      0.1000      0.1000      0.1000      0.1000      0.1000    
       0.1000      0.1000      0.1000      0.1000      0.1000      0.1000      0.1000      0.1000      0.1000      0.1000    
       0.1000      0.1000      0.1000      0.1000      0.1000      0.1000      0.1000      0.1000      0.1000      0.1000    
       0.1000      0.1000      0.1000      0.1000      0.1000      0.1000      0.1000      0.1000      0.1000      0.1000    
       0.1000      0.1000      0.1000      0.1000      0.1000      0.1000      0.1000      0.1000      0.1000      0.1000    
       0.1000      0.1000      0.1000      0.1000      0.1000      0.1000      0.1000      0.1000      0.1000      0.1000    
       0.1000      0.1000       0.000       0.000       0.000       0.000    
  43   0.1000      0.1000      0.1000      0.1000      0.1000      0.1000      0.1000      0.1000      0.1000      0.1000    
       0.1000      0.1000      0.1000      0.1000      0.1000      0.1000      0.1000      0.1000      0.1000      0.1000    
       0.1000      0.1000      0.1000      0.1000      0.1000      0.1000      0.1000      0.1000      0.1000      0.1000    
       0.1000      0.1000      0.1000      0.1000      0.1000      0.1000      0.1000      0.1000      0.1000      0.1000    
       0.1000      0.1000      0.1000      0.1000      0.1000      0.1000      0.1000      0.1000      0.1000      0.1000    
       0.1000      0.1000      0.1000      0.1000      0.1000      0.1000      0.1000      0.1000      0.1000      0.1000    
       0.1000      0.1000      0.1000      0.1000      0.1000      0.1000      0.1000      0.1000      0.1000      0.1000    
       0.1000      0.1000      0.1000       0.000       0.000       0.000    
  44   0.1000      0.1000      0.1000      0.1000      0.1000      0.1000      0.1000      0.1000      0.1000      0.1000    
       0.1000      0.1000      0.1000      0.1000      0.1000      0.1000      0.1000      0.1000      0.1000      0.1000    
       0.1000      0.1000      0.1000      0.1000      0.1000      0.1000      0.1000      0.1000      0.1000      0.1000    
       0.1000      0.1000      0.1000      0.1000      0.1000      0.1000      0.1000      0.1000      0.1000      0.1000    
       0.1000      0.1000      0.1000      0.1000      0.1000      0.1000      0.1000      0.1000      0.1000      0.1000    
       0.1000      0.1000      0.1000      0.1000      0.1000      0.1000      0.1000      0.1000      0.1000      0.1000    
       0.1000      0.1000      0.1000      0.1000      0.1000      0.1000      0.1000      0.1000      0.1000      0.1000    
       0.1000      0.1000      0.1000      0.1000       0.000       0.000    
  45   0.1000      0.1000      0.1000      0.1000      0.1000      0.1000      0.1000      0.1000      0.1000      0.1000    
       0.1000      0.1000      0.1000      0.1000      0.1000      0.1000      0.1000      0.1000      0.1000      0.1000    
       0.1000      0.1000      0.1000      0.1000      0.1000      0.1000      0.1000      0.1000      0.1000      0.1000    
       0.1000      0.1000      0.1000      0.1000      0.1000      0.1000      0.1000      0.1000      0.1000      0.1000    
       0.1000      0.1000      0.1000      0.1000      0.1000      0.1000      0.1000      0.1000      0.1000      0.1000    
       0.1000      0.1000      0.1000      0.1000      0.1000      0.1000      0.1000      0.1000      0.1000      0.1000    
       0.1000      0.1000      0.1000      0.1000      0.1000      0.1000      0.1000      0.1000      0.1000      0.1000    
       0.1000      0.1000      0.1000      0.1000      0.1000       0.000    
  46   0.1000      0.1000      0.1000      0.1000      0.1000      0.1000      0.1000      0.1000      0.1000      0.1000    
       0.1000      0.1000      0.1000      0.1000      0.1000      0.1000      0.1000      0.1000      0.1000      0.1000    
       0.1000      0.1000      0.1000      0.1000      0.1000      0.1000      0.1000      0.1000      0.1000      0.1000    
       0.1000      0.1000      0.1000      0.1000      0.1000      0.1000      0.1000      0.1000      0.1000      0.1000    
       0.1000      0.1000      0.1000      0.1000      0.1000      0.1000      0.1000      0.1000      0.1000      0.1000    
       0.1000      0.1000      0.1000      0.1000      0.1000      0.1000      0.1000      0.1000      0.1000      0.1000    
       0.1000      0.1000      0.1000      0.1000      0.1000      0.1000      0.1000      0.1000      0.1000      0.1000    
       0.1000      0.1000      0.1000      0.1000      0.1000      0.1000    
  47   0.1000      0.1000      0.1000      0.1000      0.1000      0.1000      0.1000      0.1000      0.1000      0.1000    
       0.1000      0.1000      0.1000      0.1000      0.1000      0.1000      0.1000      0.1000      0.1000      0.1000    
       0.1000      0.1000      0.1000      0.1000      0.1000      0.1000      0.1000      0.1000      0.1000      0.1000    
       0.1000      0.1000      0.1000      0.1000      0.1000      0.1000      0.1000      0.1000      0.1000      0.1000    
       0.1000      0.1000      0.1000      0.1000      0.1000      0.1000      0.1000      0.1000      0.1000      0.1000    
       0.1000      0.1000      0.1000      0.1000      0.1000      0.1000      0.1000      0.1000      0.1000      0.1000    
       0.1000      0.1000      0.1000      0.1000      0.1000      0.1000      0.1000      0.1000      0.1000      0.1000    
       0.1000      0.1000      0.1000      0.1000      0.1000      0.1000    
  48   0.1000      0.1000      0.1000      0.1000      0.1000      0.1000      0.1000      0.1000      0.1000      0.1000    
       0.1000      0.1000      0.1000      0.1000      0.1000      0.1000      0.1000      0.1000      0.1000      0.1000    
       0.1000      0.1000      0.1000      0.1000      0.1000      0.1000      0.1000      0.1000      0.1000      0.1000    
       0.1000      0.1000      0.1000      0.1000      0.1000      0.1000      0.1000      0.1000      0.1000      0.1000    
       0.1000      0.1000      0.1000      0.1000      0.1000      0.1000      0.1000      0.1000      0.1000      0.1000    
       0.1000      0.1000      0.1000      0.1000      0.1000      0.1000      0.1000      0.1000      0.1000      0.1000    
       0.1000      0.1000      0.1000      0.1000      0.1000      0.1000      0.1000      0.1000      0.1000      0.1000    
       0.1000      0.1000      0.1000      0.1000      0.1000      0.1000    
  49   0.1000      0.1000      0.1000      0.1000      0.1000      0.1000      0.1000      0.1000      0.1000      0.1000    
       0.1000      0.1000      0.1000      0.1000      0.1000      0.1000      0.1000      0.1000      0.1000      0.1000    
       0.1000      0.1000      0.1000      0.1000      0.1000      0.1000      0.1000      0.1000      0.1000      0.1000    
       0.1000      0.1000      0.1000      0.1000      0.1000      0.1000      0.1000      0.1000      0.1000      0.1000    
       0.1000      0.1000      0.1000      0.1000      0.1000      0.1000      0.1000      0.1000      0.1000      0.1000    
       0.1000      0.1000      0.1000      0.1000      0.1000      0.1000      0.1000      0.1000      0.1000      0.1000    
       0.1000      0.1000      0.1000      0.1000      0.1000      0.1000      0.1000      0.1000      0.1000      0.1000    
       0.1000      0.1000      0.1000      0.1000      0.1000      0.1000    
  50   0.1000      0.1000      0.1000      0.1000      0.1000      0.1000      0.1000      0.1000      0.1000      0.1000    
       0.1000      0.1000      0.1000      0.1000      0.1000      0.1000      0.1000      0.1000      0.1000      0.1000    
       0.1000      0.1000      0.1000      0.1000      0.1000      0.1000      0.1000      0.1000      0.1000      0.1000    
       0.1000      0.1000      0.1000      0.1000      0.1000      0.1000      0.1000      0.1000      0.1000      0.1000    
       0.1000      0.1000      0.1000      0.1000      0.1000      0.1000      0.1000      0.1000      0.1000      0.1000    
       0.1000      0.1000      0.1000      0.1000      0.1000      0.1000      0.1000      0.1000      0.1000      0.1000    
       0.1000      0.1000      0.1000      0.1000      0.1000      0.1000      0.1000      0.1000      0.1000      0.1000    
       0.1000      0.1000      0.1000      0.1000      0.1000      0.1000    
  51   0.1000      0.1000      0.1000      0.1000      0.1000      0.1000      0.1000      0.1000      0.1000      0.1000    
       0.1000      0.1000      0.1000      0.1000      0.1000      0.1000      0.1000      0.1000      0.1000      0.1000    
       0.1000      0.1000      0.1000      0.1000      0.1000      0.1000      0.1000      0.1000      0.1000      0.1000    
       0.1000      0.1000      0.1000      0.1000      0.1000      0.1000      0.1000      0.1000      0.1000      0.1000    
       0.1000      0.1000      0.1000      0.1000      0.1000      0.1000      0.1000      0.1000      0.1000      0.1000    
       0.1000      0.1000      0.1000      0.1000      0.1000      0.1000      0.1000      0.1000      0.1000      0.1000    
       0.1000      0.1000      0.1000      0.1000      0.1000      0.1000      0.1000      0.1000      0.1000      0.1000    
       0.1000      0.1000      0.1000      0.1000      0.1000      0.1000    
  52   0.1000      0.1000      0.1000      0.1000      0.1000      0.1000      0.1000      0.1000      0.1000      0.1000    
       0.1000      0.1000      0.1000      0.1000      0.1000      0.1000      0.1000      0.1000      0.1000      0.1000    
       0.1000      0.1000      0.1000      0.1000      0.1000      0.1000      0.1000      0.1000      0.1000      0.1000    
       0.1000      0.1000      0.1000      0.1000      0.1000      0.1000      0.1000      0.1000      0.1000      0.1000    
       0.1000      0.1000      0.1000      0.1000      0.1000      0.1000      0.1000      0.1000      0.1000      0.1000    
       0.1000      0.1000      0.1000      0.1000      0.1000      0.1000      0.1000      0.1000      0.1000      0.1000    
       0.1000      0.1000      0.1000      0.1000      0.1000      0.1000      0.1000      0.1000      0.1000      0.1000    
       0.1000      0.1000      0.1000      0.1000      0.1000      0.1000    
  53   0.1000      0.1000      0.1000      0.1000      0.1000      0.1000      0.1000      0.1000      0.1000      0.1000    
       0.1000      0.1000      0.1000      0.1000      0.1000      0.1000      0.1000      0.1000      0.1000      0.1000    
       0.1000      0.1000      0.1000      0.1000      0.1000      0.1000      0.1000      0.1000      0.1000      0.1000    
       0.1000      0.1000      0.1000      0.1000      0.1000      0.1000      0.1000      0.1000      0.1000      0.1000    
       0.1000      0.1000      0.1000      0.1000      0.1000      0.1000      0.1000      0.1000      0.1000      0.1000    
       0.1000      0.1000      0.1000      0.1000      0.1000      0.1000      0.1000      0.1000      0.1000      0.1000    
       0.1000      0.1000      0.1000      0.1000      0.1000      0.1000      0.1000      0.1000      0.1000      0.1000    
       0.1000      0.1000      0.1000      0.1000      0.1000      0.1000    
  54   0.1000      0.1000      0.1000      0.1000      0.1000      0.1000      0.1000      0.1000      0.1000      0.1000    
       0.1000      0.1000      0.1000      0.1000      0.1000      0.1000      0.1000      0.1000      0.1000      0.1000    
       0.1000      0.1000      0.1000      0.1000      0.1000      0.1000      0.1000      0.1000      0.1000      0.1000    
       0.1000      0.1000      0.1000      0.1000      0.1000      0.1000      0.1000      0.1000      0.1000      0.1000    
       0.1000      0.1000      0.1000      0.1000      0.1000      0.1000      0.1000      0.1000      0.1000      0.1000    
       0.1000      0.1000      0.1000      0.1000      0.1000      0.1000      0.1000      0.1000      0.1000      0.1000    
       0.1000      0.1000      0.1000      0.1000      0.1000      0.1000      0.1000      0.1000      0.1000      0.1000    
       0.1000      0.1000      0.1000      0.1000      0.1000      0.1000    
  55   0.1000      0.1000      0.1000      0.1000      0.1000      0.1000      0.1000      0.1000      0.1000      0.1000    
       0.1000      0.1000      0.1000      0.1000      0.1000      0.1000      0.1000      0.1000      0.1000      0.1000    
       0.1000      0.1000      0.1000      0.1000      0.1000      0.1000      0.1000      0.1000      0.1000      0.1000    
       0.1000      0.1000      0.1000      0.1000      0.1000      0.1000      0.1000      0.1000      0.1000      0.1000    
       0.1000      0.1000      0.1000      0.1000      0.1000      0.1000      0.1000      0.1000      0.1000      0.1000    
       0.1000      0.1000      0.1000      0.1000      0.1000      0.1000      0.1000      0.1000      0.1000      0.1000    
       0.1000      0.1000      0.1000      0.1000      0.1000      0.1000      0.1000      0.1000      0.1000      0.1000    
       0.1000      0.1000      0.1000      0.1000      0.1000      0.1000    
  56   0.1000      0.1000      0.1000      0.1000      0.1000      0.1000      0.1000      0.1000      0.1000      0.1000    
       0.1000      0.1000      0.1000      0.1000      0.1000      0.1000      0.1000      0.1000      0.1000      0.1000    
       0.1000      0.1000      0.1000      0.1000      0.1000      0.1000      0.1000      0.1000      0.1000      0.1000    
       0.1000      0.1000      0.1000      0.1000      0.1000      0.1000      0.1000      0.1000      0.1000      0.1000    
       0.1000      0.1000      0.1000      0.1000      0.1000      0.1000      0.1000      0.1000      0.1000      0.1000    
       0.1000      0.1000      0.1000      0.1000      0.1000      0.1000      0.1000      0.1000      0.1000      0.1000    
       0.1000      0.1000      0.1000      0.1000      0.1000      0.1000      0.1000      0.1000      0.1000      0.1000    
       0.1000      0.1000      0.1000      0.1000      0.1000      0.1000    
  57   0.1000      0.1000      0.1000      0.1000      0.1000      0.1000      0.1000      0.1000      0.1000      0.1000    
       0.1000      0.1000      0.1000      0.1000      0.1000      0.1000      0.1000      0.1000      0.1000      0.1000    
       0.1000      0.1000      0.1000      0.1000      0.1000      0.1000      0.1000      0.1000      0.1000      0.1000    
       0.1000      0.1000      0.1000      0.1000      0.1000      0.1000      0.1000      0.1000      0.1000      0.1000    
       0.1000      0.1000      0.1000      0.1000      0.1000      0.1000      0.1000      0.1000      0.1000      0.1000    
       0.1000      0.1000      0.1000      0.1000      0.1000      0.1000      0.1000      0.1000      0.1000      0.1000    
       0.1000      0.1000      0.1000      0.1000      0.1000      0.1000      0.1000      0.1000      0.1000      0.1000    
       0.1000      0.1000      0.1000      0.1000      0.1000      0.1000    
  58   0.1000      0.1000      0.1000      0.1000      0.1000      0.1000      0.1000      0.1000      0.1000      0.1000    
       0.1000      0.1000      0.1000      0.1000      0.1000      0.1000      0.1000      0.1000      0.1000      0.1000    
       0.1000      0.1000       0.000      0.1000      0.1000      0.1000      0.1000      0.1000      0.1000      0.1000    
       0.1000      0.1000      0.1000      0.1000      0.1000      0.1000      0.1000      0.1000      0.1000      0.1000    
       0.1000      0.1000      0.1000      0.1000      0.1000      0.1000      0.1000      0.1000      0.1000      0.1000    
       0.1000      0.1000      0.1000      0.1000      0.1000      0.1000      0.1000      0.1000      0.1000      0.1000    
       0.1000      0.1000      0.1000      0.1000      0.1000      0.1000      0.1000      0.1000      0.1000      0.1000    
       0.1000      0.1000      0.1000      0.1000      0.1000      0.1000    
  59   0.1000      0.1000      0.1000      0.1000      0.1000      0.1000      0.1000      0.1000      0.1000      0.1000    
       0.1000      0.1000      0.1000      0.1000      0.1000      0.1000      0.1000      0.1000      0.1000      0.1000    
       0.1000      0.1000      0.1000      0.1000      0.1000      0.1000      0.1000      0.1000      0.1000      0.1000    
       0.1000      0.1000      0.1000      0.1000      0.1000      0.1000      0.1000      0.1000      0.1000      0.1000    
       0.1000      0.1000      0.1000      0.1000      0.1000      0.1000      0.1000      0.1000      0.1000      0.1000    
       0.1000      0.1000      0.1000      0.1000      0.1000      0.1000      0.1000      0.1000      0.1000      0.1000    
       0.1000      0.1000      0.1000      0.1000      0.1000      0.1000      0.1000      0.1000      0.1000      0.1000    
       0.1000      0.1000      0.1000      0.1000      0.1000      0.1000    
  60   0.1000      0.1000      0.1000      0.1000      0.1000      0.1000      0.1000      0.1000      0.1000      0.1000    
       0.1000      0.1000      0.1000      0.1000      0.1000      0.1000      0.1000      0.1000      0.1000      0.1000    
       0.1000      0.1000      0.1000      0.1000      0.1000      0.1000      0.1000      0.1000      0.1000      0.1000    
       0.1000      0.1000      0.1000      0.1000      0.1000      0.1000      0.1000      0.1000      0.1000      0.1000    
       0.1000      0.1000      0.1000      0.1000      0.1000      0.1000      0.1000      0.1000      0.1000      0.1000    
       0.1000      0.1000      0.1000      0.1000      0.1000      0.1000      0.1000      0.1000      0.1000      0.1000    
       0.1000      0.1000      0.1000      0.1000      0.1000      0.1000      0.1000      0.1000      0.1000      0.1000    
       0.1000      0.1000      0.1000      0.1000      0.1000      0.1000    
  61   0.1000      0.1000      0.1000      0.1000      0.1000      0.1000      0.1000      0.1000      0.1000      0.1000    
       0.1000      0.1000      0.1000      0.1000      0.1000      0.1000      0.1000      0.1000      0.1000      0.1000    
       0.1000       0.000      0.1000      0.1000      0.1000      0.1000      0.1000      0.1000      0.1000      0.1000    
       0.1000      0.1000      0.1000      0.1000      0.1000      0.1000      0.1000      0.1000      0.1000      0.1000    
       0.1000      0.1000      0.1000      0.1000      0.1000      0.1000      0.1000      0.1000      0.1000      0.1000    
       0.1000      0.1000      0.1000      0.1000      0.1000      0.1000      0.1000      0.1000      0.1000      0.1000    
       0.1000      0.1000      0.1000      0.1000      0.1000      0.1000      0.1000      0.1000      0.1000      0.1000    
       0.1000      0.1000      0.1000      0.1000      0.1000      0.1000    
  62   0.1000      0.1000      0.1000      0.1000      0.1000      0.1000      0.1000      0.1000      0.1000      0.1000    
       0.1000      0.1000      0.1000      0.1000      0.1000      0.1000      0.1000      0.1000      0.1000      0.1000    
       0.1000       0.000      0.1000      0.1000      0.1000      0.1000      0.1000      0.1000      0.1000      0.1000    
       0.1000      0.1000      0.1000      0.1000      0.1000      0.1000      0.1000      0.1000      0.1000      0.1000    
       0.1000      0.1000      0.1000      0.1000      0.1000      0.1000      0.1000      0.1000      0.1000      0.1000    
       0.1000      0.1000      0.1000      0.1000      0.1000      0.1000      0.1000      0.1000      0.1000      0.1000    
       0.1000      0.1000      0.1000      0.1000      0.1000      0.1000      0.1000      0.1000      0.1000      0.1000    
       0.1000      0.1000      0.1000      0.1000      0.1000      0.1000    
  63   0.1000      0.1000      0.1000      0.1000      0.1000      0.1000      0.1000      0.1000      0.1000      0.1000    
       0.1000      0.1000      0.1000      0.1000      0.1000      0.1000      0.1000      0.1000      0.1000      0.1000    
       0.1000      0.1000      0.1000      0.1000      0.1000      0.1000      0.1000      0.1000      0.1000      0.1000    
       0.1000      0.1000      0.1000      0.1000      0.1000      0.1000      0.1000      0.1000      0.1000      0.1000    
       0.1000      0.1000      0.1000      0.1000      0.1000      0.1000      0.1000      0.1000      0.1000      0.1000    
       0.1000      0.1000      0.1000      0.1000      0.1000      0.1000      0.1000      0.1000      0.1000      0.1000    
       0.1000      0.1000      0.1000      0.1000      0.1000      0.1000      0.1000      0.1000      0.1000      0.1000    
       0.1000      0.1000      0.1000      0.1000      0.1000      0.1000    
  64   0.1000      0.1000      0.1000      0.1000      0.1000      0.1000      0.1000      0.1000      0.1000      0.1000    
       0.1000      0.1000      0.1000      0.1000      0.1000      0.1000      0.1000      0.1000      0.1000      0.1000    
        0.000      0.1000      0.1000      0.1000      0.1000      0.1000      0.1000      0.1000      0.1000      0.1000    
       0.1000      0.1000      0.1000      0.1000      0.1000      0.1000      0.1000      0.1000      0.1000      0.1000    
       0.1000      0.1000      0.1000      0.1000      0.1000      0.1000      0.1000      0.1000      0.1000      0.1000    
       0.1000      0.1000      0.1000      0.1000      0.1000      0.1000      0.1000      0.1000      0.1000      0.1000    
       0.1000      0.1000      0.1000      0.1000      0.1000      0.1000      0.1000      0.1000      0.1000      0.1000    
       0.1000      0.1000      0.1000      0.1000      0.1000      0.1000    
  65   0.1000      0.1000      0.1000      0.1000      0.1000      0.1000      0.1000      0.1000      0.1000      0.1000    
       0.1000      0.1000      0.1000      0.1000      0.1000      0.1000      0.1000      0.1000      0.1000      0.1000    
        0.000      0.1000      0.1000      0.1000      0.1000      0.1000      0.1000      0.1000      0.1000      0.1000    
       0.1000      0.1000      0.1000      0.1000      0.1000      0.1000      0.1000      0.1000      0.1000      0.1000    
       0.1000      0.1000      0.1000      0.1000      0.1000      0.1000      0.1000      0.1000      0.1000      0.1000    
       0.1000      0.1000      0.1000      0.1000      0.1000      0.1000      0.1000      0.1000      0.1000      0.1000    
       0.1000      0.1000      0.1000      0.1000      0.1000      0.1000      0.1000      0.1000      0.1000      0.1000    
       0.1000      0.1000      0.1000      0.1000      0.1000      0.1000    
  66   0.1000      0.1000      0.1000      0.1000      0.1000      0.1000      0.1000      0.1000      0.1000      0.1000    
       0.1000      0.1000      0.1000      0.1000      0.1000      0.1000      0.1000      0.1000      0.1000      0.1000    
        0.000      0.1000      0.1000      0.1000      0.1000      0.1000      0.1000      0.1000      0.1000      0.1000    
       0.1000      0.1000      0.1000      0.1000      0.1000      0.1000      0.1000      0.1000      0.1000      0.1000    
       0.1000      0.1000      0.1000      0.1000      0.1000      0.1000      0.1000      0.1000      0.1000      0.1000    
       0.1000      0.1000      0.1000      0.1000      0.1000      0.1000      0.1000      0.1000      0.1000      0.1000    
       0.1000      0.1000      0.1000      0.1000      0.1000      0.1000      0.1000      0.1000      0.1000      0.1000    
       0.1000      0.1000      0.1000      0.1000      0.1000      0.1000    
  67   0.1000      0.1000      0.1000      0.1000      0.1000      0.1000      0.1000      0.1000      0.1000      0.1000    
       0.1000      0.1000      0.1000      0.1000      0.1000      0.1000      0.1000      0.1000      0.1000      0.1000    
       0.1000      0.1000      0.1000      0.1000      0.1000      0.1000      0.1000      0.1000      0.1000      0.1000    
       0.1000      0.1000      0.1000      0.1000      0.1000      0.1000      0.1000      0.1000      0.1000      0.1000    
       0.1000      0.1000      0.1000      0.1000      0.1000      0.1000      0.1000      0.1000      0.1000      0.1000    
       0.1000      0.1000      0.1000      0.1000      0.1000      0.1000      0.1000      0.1000      0.1000      0.1000    
       0.1000      0.1000      0.1000      0.1000      0.1000      0.1000      0.1000      0.1000      0.1000      0.1000    
       0.1000      0.1000      0.1000      0.1000      0.1000      0.1000    
  68   0.1000      0.1000      0.1000      0.1000      0.1000      0.1000      0.1000      0.1000      0.1000      0.1000    
       0.1000      0.1000      0.1000      0.1000      0.1000      0.1000      0.1000      0.1000      0.1000       0.000    
       0.1000      0.1000      0.1000      0.1000      0.1000      0.1000      0.1000      0.1000      0.1000      0.1000    
       0.1000      0.1000      0.1000      0.1000      0.1000      0.1000      0.1000      0.1000      0.1000      0.1000    
       0.1000      0.1000      0.1000      0.1000      0.1000      0.1000      0.1000      0.1000      0.1000      0.1000    
       0.1000      0.1000      0.1000      0.1000      0.1000      0.1000      0.1000      0.1000      0.1000      0.1000    
       0.1000      0.1000      0.1000      0.1000      0.1000      0.1000      0.1000      0.1000      0.1000      0.1000    
       0.1000      0.1000      0.1000      0.1000      0.1000      0.1000    
  69   0.1000      0.1000      0.1000      0.1000      0.1000      0.1000      0.1000      0.1000      0.1000      0.1000    
       0.1000      0.1000      0.1000      0.1000      0.1000      0.1000      0.1000      0.1000      0.1000       0.000    
       0.1000      0.1000      0.1000      0.1000      0.1000      0.1000      0.1000      0.1000      0.1000      0.1000    
       0.1000      0.1000      0.1000      0.1000      0.1000      0.1000      0.1000      0.1000      0.1000      0.1000    
       0.1000      0.1000      0.1000      0.1000      0.1000      0.1000      0.1000      0.1000      0.1000      0.1000    
       0.1000      0.1000      0.1000      0.1000      0.1000      0.1000      0.1000      0.1000      0.1000      0.1000    
       0.1000      0.1000      0.1000      0.1000      0.1000      0.1000      0.1000      0.1000      0.1000      0.1000    
       0.1000      0.1000      0.1000      0.1000      0.1000      0.1000    
  70   0.1000      0.1000      0.1000      0.1000      0.1000      0.1000      0.1000      0.1000      0.1000      0.1000    
       0.1000      0.1000      0.1000      0.1000      0.1000      0.1000      0.1000      0.1000      0.1000       0.000    
       0.1000      0.1000      0.1000      0.1000      0.1000      0.1000      0.1000      0.1000      0.1000      0.1000    
       0.1000      0.1000      0.1000      0.1000      0.1000      0.1000      0.1000      0.1000      0.1000      0.1000    
       0.1000      0.1000      0.1000      0.1000      0.1000      0.1000      0.1000      0.1000      0.1000      0.1000    
       0.1000      0.1000      0.1000      0.1000      0.1000      0.1000      0.1000      0.1000      0.1000      0.1000    
       0.1000      0.1000      0.1000      0.1000      0.1000      0.1000      0.1000      0.1000      0.1000      0.1000    
       0.1000      0.1000      0.1000      0.1000      0.1000      0.1000    
  71   0.1000      0.1000      0.1000      0.1000      0.1000      0.1000      0.1000      0.1000      0.1000      0.1000    
       0.1000      0.1000      0.1000      0.1000      0.1000      0.1000      0.1000      0.1000       0.000      0.1000    
       0.1000      0.1000      0.1000      0.1000      0.1000      0.1000      0.1000      0.1000      0.1000      0.1000    
       0.1000      0.1000      0.1000      0.1000      0.1000      0.1000      0.1000      0.1000      0.1000      0.1000    
       0.1000      0.1000      0.1000      0.1000      0.1000      0.1000      0.1000      0.1000      0.1000      0.1000    
       0.1000      0.1000      0.1000      0.1000      0.1000      0.1000      0.1000      0.1000      0.1000      0.1000    
       0.1000      0.1000      0.1000      0.1000      0.1000      0.1000      0.1000      0.1000      0.1000      0.1000    
       0.1000      0.1000      0.1000      0.1000      0.1000      0.1000    
  72    1.000       1.000       1.000       1.000       1.000       1.000       1.000       1.000       1.000       1.000    
        1.000       1.000       1.000       1.000       1.000       1.000       1.000       1.000       0.000       1.000    
        1.000       1.000       1.000       1.000       1.000       1.000       1.000       1.000       1.000       1.000    
        1.000       1.000       1.000       1.000       1.000       1.000       1.000       1.000       1.000       1.000    
        1.000       1.000       1.000       1.000       1.000       1.000       1.000       1.000       1.000       1.000    
        1.000       1.000       1.000       1.000       1.000       1.000       1.000       1.000       1.000       1.000    
        1.000       1.000       1.000       1.000       1.000       1.000       1.000       1.000       1.000       1.000    
        1.000       1.000       1.000       1.000       1.000       1.000    
  73    1.000       1.000       1.000       1.000       1.000       1.000       1.000       1.000       1.000       1.000    
        1.000       1.000       1.000       1.000       1.000       1.000       1.000       1.000       0.000       1.000    
        1.000       1.000       1.000       1.000       1.000       1.000       1.000       1.000       1.000       1.000    
        1.000       1.000       1.000       1.000       1.000       1.000       1.000       1.000       1.000       1.000    
        1.000       1.000       1.000       1.000       1.000       1.000       1.000       1.000       1.000       1.000    
        1.000       1.000       1.000       1.000       1.000       1.000       1.000       1.000       1.000       1.000    
        1.000       1.000       1.000       1.000       1.000       1.000       1.000       1.000       1.000       1.000    
        1.000       1.000       1.000       1.000       1.000       1.000    
  74    1.000       1.000       1.000       1.000       1.000       1.000       1.000       1.000       1.000       1.000    
        1.000       1.000       1.000       1.000       1.000       1.000       1.000       0.000       0.000       1.000    
        1.000       1.000       1.000       1.000       1.000       1.000       1.000       1.000       1.000       1.000    
        1.000       1.000       1.000       1.000       1.000       1.000       1.000       1.000       1.000       1.000    
        1.000       1.000       1.000       1.000       1.000       1.000       1.000       1.000       1.000       1.000    
        1.000       1.000       1.000       1.000       1.000       1.000       1.000       1.000       1.000       1.000    
        1.000       1.000       1.000       1.000       1.000       1.000       1.000       1.000       1.000       1.000    
        1.000       1.000       1.000       1.000       1.000       1.000    
  75    1.000       1.000       1.000       1.000       1.000       1.000       1.000       1.000       1.000       1.000    
        1.000       1.000       1.000       1.000       1.000       1.000       1.000       0.000       1.000       1.000    
        1.000       1.000       1.000       1.000       1.000       1.000       1.000       1.000       1.000       1.000    
        1.000       1.000       1.000       1.000       1.000       1.000       1.000       1.000       1.000       1.000    
        1.000       1.000       1.000       1.000       1.000       1.000       1.000       1.000       1.000       1.000    
        1.000       1.000       1.000       1.000       1.000       1.000       1.000       1.000       1.000       1.000    
        1.000       1.000       1.000       1.000       1.000       1.000       1.000       1.000       1.000       1.000    
        1.000       1.000       1.000       1.000       1.000       1.000    
  76    1.000       1.000       1.000       1.000       1.000       1.000       1.000       1.000       1.000       1.000    
        1.000       1.000       1.000       1.000       1.000       1.000       1.000       0.000       1.000       1.000    
        1.000       1.000       1.000       1.000       1.000       1.000       1.000       1.000       1.000       1.000    
        1.000       1.000       1.000       1.000       1.000       1.000       1.000       1.000       1.000       1.000    
        1.000       1.000       1.000       1.000       1.000       1.000       1.000       1.000       1.000       1.000    
        1.000       1.000       1.000       1.000       1.000       1.000       1.000       1.000       1.000       1.000    
        1.000       1.000       1.000       1.000       1.000       1.000       1.000       1.000       1.000       1.000    
        1.000       1.000       1.000       1.000       1.000       1.000    
  77    1.000       1.000       1.000       1.000       1.000       1.000       1.000       1.000       1.000       1.000    
        1.000       1.000       1.000       1.000       1.000       1.000       0.000       0.000       1.000       1.000    
        1.000       1.000       1.000       1.000       1.000       1.000       1.000       1.000       1.000       1.000    
        1.000       1.000       1.000       1.000       1.000       1.000       1.000       1.000       1.000       1.000    
        1.000       1.000       1.000       1.000       1.000       1.000       1.000       1.000       1.000       1.000    
        1.000       1.000       1.000       1.000       1.000       1.000       1.000       1.000       1.000       1.000    
        1.000       1.000       1.000       1.000       1.000       1.000       1.000       1.000       1.000       1.000    
        1.000       1.000       1.000       1.000       1.000       1.000    
  78    1.000       1.000       1.000       1.000       1.000       1.000       1.000       1.000       1.000       1.000    
        1.000       1.000       1.000       1.000       1.000       1.000       0.000       0.000       1.000       1.000    
        1.000       1.000       1.000       1.000       1.000       1.000       1.000       1.000       1.000       1.000    
        1.000       1.000       1.000       1.000       1.000       1.000       1.000       1.000       1.000       1.000    
        1.000       1.000       1.000       1.000       1.000       1.000       1.000       1.000       1.000       1.000    
        1.000       1.000       1.000       1.000       1.000       1.000       1.000       1.000       1.000       1.000    
        1.000       1.000       1.000       1.000       1.000       1.000       1.000       1.000       1.000       1.000    
        1.000       1.000       1.000       1.000       1.000       1.000    
  79    1.000       1.000       1.000       1.000       1.000       1.000       1.000       1.000       1.000       1.000    
        1.000       1.000       1.000       1.000       1.000       1.000       0.000       0.000       1.000       1.000    
        1.000       1.000       1.000       1.000       1.000       1.000       1.000       1.000       1.000       1.000    
        1.000       1.000       1.000       1.000       1.000       1.000       1.000       1.000       1.000       1.000    
        1.000       1.000       1.000       1.000       1.000       1.000       1.000       1.000       1.000       1.000    
        1.000       1.000       1.000       1.000       1.000       1.000       1.000       1.000       1.000       1.000    
        1.000       1.000       1.000       1.000       1.000       1.000       1.000       1.000       1.000       1.000    
        1.000       1.000       1.000       1.000       1.000       1.000    
  80    1.000       1.000       1.000       1.000       1.000       1.000       1.000       1.000       1.000       1.000    
        1.000       1.000       1.000       1.000       1.000       1.000       0.000       1.000       1.000       1.000    
        1.000       1.000       1.000       1.000       1.000       1.000       1.000       1.000       1.000       1.000    
        1.000       1.000       1.000       1.000       1.000       1.000       1.000       1.000       1.000       1.000    
        1.000       1.000       1.000       1.000       1.000       1.000       1.000       1.000       1.000       1.000    
        1.000       1.000       1.000       1.000       1.000       1.000       1.000       1.000       1.000       1.000    
        1.000       1.000       1.000       1.000       1.000       1.000       1.000       1.000       1.000       1.000    
        1.000       1.000       1.000       1.000       1.000       1.000    
  81    1.000       1.000       1.000       1.000       1.000       1.000       1.000       1.000       1.000       1.000    
        1.000       1.000       1.000       1.000       1.000       0.000       0.000       1.000       1.000       1.000    
        1.000       1.000       1.000       1.000       1.000       1.000       1.000       1.000       1.000       1.000    
        1.000       1.000       1.000       1.000       1.000       1.000       1.000       1.000       1.000       1.000    
        1.000       1.000       1.000       1.000       1.000       1.000       1.000       1.000       1.000       1.000    
        1.000       1.000       1.000       1.000       1.000       1.000       1.000       1.000       1.000       1.000    
        1.000       1.000       1.000       1.000       1.000       1.000       1.000       1.000       1.000       1.000    
        1.000       1.000       1.000       1.000       1.000       1.000    
  82    1.000       1.000       1.000       1.000       1.000       1.000       1.000       1.000       1.000       1.000    
        1.000       1.000       1.000       1.000       1.000       0.000       0.000       1.000       1.000       1.000    
        1.000       1.000       1.000       1.000       1.000       1.000       1.000       1.000       1.000       1.000    
        1.000       1.000       1.000       1.000       1.000       1.000       1.000       1.000       1.000       1.000    
        1.000       1.000       1.000       1.000       1.000       1.000       1.000       1.000       1.000       1.000    
        1.000       1.000       1.000       1.000       1.000       1.000       1.000       1.000       1.000       1.000    
        1.000       1.000       1.000       1.000       1.000       1.000       1.000       1.000       1.000       1.000    
        1.000       1.000       1.000       1.000       1.000       1.000    
  83    1.000       1.000       1.000       1.000       1.000       1.000       1.000       1.000       1.000       1.000    
        1.000       1.000       1.000       1.000       1.000       0.000       1.000       1.000       1.000       1.000    
        1.000       1.000       1.000       1.000       1.000       1.000       1.000       1.000       1.000       1.000    
        1.000       1.000       1.000       1.000       1.000       1.000       1.000       1.000       1.000       1.000    
        1.000       1.000       1.000       1.000       1.000       1.000       1.000       1.000       1.000       1.000    
        1.000       1.000       1.000       1.000       1.000       1.000       1.000       1.000       1.000       1.000    
        1.000       1.000       1.000       1.000       1.000       1.000       1.000       1.000       1.000       1.000    
        1.000       1.000       1.000       1.000       1.000       1.000    
  84    1.000       1.000       1.000       1.000       1.000       1.000       1.000       1.000       1.000       1.000    
        1.000       1.000       1.000       1.000       0.000       0.000       1.000       1.000       1.000       1.000    
        1.000       1.000       1.000       1.000       1.000       1.000       1.000       1.000       1.000       1.000    
        1.000       1.000       1.000       1.000       1.000       1.000       1.000       1.000       1.000       1.000    
        1.000       1.000       1.000       1.000       1.000       1.000       1.000       1.000       1.000       1.000    
        1.000       1.000       1.000       1.000       1.000       1.000       1.000       1.000       1.000       1.000    
        1.000       1.000       1.000       1.000       1.000       1.000       1.000       1.000       1.000       1.000    
        1.000       1.000       1.000       1.000       1.000       1.000    
  85    1.000       1.000       1.000       1.000       1.000       1.000       1.000       1.000       1.000       1.000    
        1.000       1.000       1.000       1.000       0.000       0.000       1.000       1.000       1.000       1.000    
        1.000       1.000       1.000       1.000       1.000       1.000       1.000       1.000       1.000       1.000    
        1.000       1.000       1.000       1.000       1.000       1.000       1.000       1.000       1.000       1.000    
        1.000       1.000       1.000       1.000       1.000       1.000       1.000       1.000       1.000       1.000    
        1.000       1.000       1.000       1.000       1.000       1.000       1.000       1.000       1.000       1.000    
        1.000       1.000       1.000       1.000       1.000       1.000       1.000       1.000       1.000       1.000    
        1.000       1.000       1.000       1.000       1.000       1.000    
  86    1.000       1.000       1.000       1.000       1.000       1.000       1.000       1.000       1.000       1.000    
        1.000       1.000       1.000       1.000       0.000       1.000       1.000       1.000       1.000       1.000    
        1.000       1.000       1.000       1.000       1.000       1.000       1.000       1.000       1.000       1.000    
        1.000       1.000       1.000       1.000       1.000       1.000       1.000       1.000       1.000       1.000    
        1.000       1.000       1.000       1.000       1.000       1.000       1.000       1.000       1.000       1.000    
        1.000       1.000       1.000       1.000       1.000       1.000       1.000       1.000       1.000       1.000    
        1.000       1.000       1.000       1.000       1.000       1.000       1.000       1.000       1.000       1.000    
        1.000       1.000       1.000       1.000       1.000       1.000    
  87    1.000       1.000       1.000       1.000       1.000       1.000       1.000       1.000       1.000       1.000    
        1.000       1.000       1.000       0.000       0.000       1.000       1.000       1.000       1.000       1.000    
        1.000       1.000       1.000       1.000       1.000       1.000       1.000       1.000       1.000       1.000    
        1.000       1.000       1.000       1.000       1.000       1.000       1.000       1.000       1.000       1.000    
        1.000       1.000       1.000       1.000       1.000       1.000       1.000       1.000       1.000       1.000    
        1.000       1.000       1.000       1.000       1.000       1.000       1.000       1.000       1.000       1.000    
        1.000       1.000       1.000       1.000       1.000       1.000       1.000       1.000       1.000       1.000    
        1.000       1.000       1.000       1.000       1.000       1.000    
  88    1.000       1.000       1.000       1.000       1.000       1.000       1.000       1.000       1.000       1.000    
        1.000       1.000       1.000       0.000       0.000       1.000       1.000       1.000       1.000       1.000    
        1.000       1.000       1.000       1.000       1.000       1.000       1.000       1.000       1.000       1.000    
        1.000       1.000       1.000       1.000       1.000       1.000       1.000       1.000       1.000       1.000    
        1.000       1.000       1.000       1.000       1.000       1.000       1.000       1.000       1.000       1.000    
        1.000       1.000       1.000       1.000       1.000       1.000       1.000       1.000       1.000       1.000    
        1.000       1.000       1.000       1.000       1.000       1.000       1.000       1.000       1.000       1.000    
        1.000       1.000       1.000       1.000       1.000       1.000    
  89    1.000       1.000       1.000       1.000       1.000       1.000       1.000       1.000       1.000       1.000    
        1.000       1.000       1.000       0.000       1.000       1.000       1.000       1.000       1.000       1.000    
        1.000       1.000       1.000       1.000       1.000       1.000       1.000       1.000       1.000       1.000    
        1.000       1.000       1.000       1.000       1.000       1.000       1.000       1.000       1.000       1.000    
        1.000       1.000       1.000       1.000       1.000       1.000       1.000       1.000       1.000       1.000    
        1.000       1.000       1.000       1.000       1.000       1.000       1.000       1.000       1.000       1.000    
        1.000       1.000       1.000       1.000       1.000       1.000       1.000       1.000       1.000       1.000    
        1.000       1.000       1.000       1.000       1.000       1.000    
  90    1.000       1.000       1.000       1.000       1.000       1.000       1.000       1.000       1.000       1.000    
        1.000       1.000       0.000       0.000       1.000       1.000       1.000       1.000       1.000       1.000    
        1.000       1.000       1.000       1.000       1.000       1.000       1.000       1.000       1.000       1.000    
        1.000       1.000       1.000       1.000       1.000       1.000       1.000       1.000       1.000       1.000    
        1.000       1.000       1.000       1.000       1.000       1.000       1.000       1.000       1.000       1.000    
        1.000       1.000       1.000       1.000       1.000       1.000       1.000       1.000       1.000       1.000    
        1.000       1.000       1.000       1.000       1.000       1.000       1.000       1.000       1.000       1.000    
        1.000       1.000       1.000       1.000       1.000       1.000    
  91    1.000       1.000       1.000       1.000       1.000       1.000       1.000       1.000       1.000       1.000    
        1.000       1.000       0.000       0.000       1.000       1.000       1.000       1.000       1.000       1.000    
        1.000       1.000       1.000       1.000       1.000       1.000       1.000       1.000       1.000       1.000    
        1.000       1.000       1.000       1.000       1.000       1.000       1.000       1.000       1.000       1.000    
        1.000       1.000       1.000       1.000       1.000       1.000       1.000       1.000       1.000       1.000    
        1.000       1.000       1.000       1.000       1.000       1.000       1.000       1.000       1.000       1.000    
        1.000       1.000       1.000       1.000       1.000       1.000       1.000       1.000       1.000       1.000    
        1.000       1.000       1.000       1.000       1.000       1.000    
  92    1.000       1.000       1.000       1.000       1.000       1.000       1.000       1.000       1.000       1.000    
        1.000       1.000       0.000       1.000       1.000       1.000       1.000       1.000       1.000       1.000    
        1.000       1.000       1.000       1.000       1.000       1.000       1.000       1.000       1.000       1.000    
        1.000       1.000       1.000       1.000       1.000       1.000       1.000       1.000       1.000       1.000    
        1.000       1.000       1.000       1.000       1.000       1.000       1.000       1.000       1.000       1.000    
        1.000       1.000       1.000       1.000       1.000       1.000       1.000       1.000       1.000       1.000    
        1.000       1.000       1.000       1.000       1.000       1.000       1.000       1.000       1.000       1.000    
        1.000       1.000       1.000       1.000       1.000       1.000    
  93    1.000       1.000       1.000       1.000       1.000       1.000       1.000       1.000       1.000       1.000    
        1.000       1.000       0.000       1.000       1.000       1.000       1.000       1.000       1.000       1.000    
        1.000       1.000       1.000       1.000       1.000       1.000       1.000       1.000       1.000       1.000    
        1.000       1.000       1.000       1.000       1.000       1.000       1.000       1.000       1.000       1.000    
        1.000       1.000       1.000       1.000       1.000       1.000       1.000       1.000       1.000       1.000    
        1.000       1.000       1.000       1.000       1.000       1.000       1.000       1.000       1.000       1.000    
        1.000       1.000       1.000       1.000       1.000       1.000       1.000       1.000       1.000       1.000    
        1.000       1.000       1.000       1.000       1.000       1.000    
  94    1.000       1.000       1.000       1.000       1.000       1.000       1.000       1.000       1.000       1.000    
        1.000       0.000       0.000       1.000       1.000       1.000       1.000       1.000       1.000       1.000    
        1.000       1.000       1.000       1.000       1.000       1.000       1.000       1.000       1.000       1.000    
        1.000       1.000       1.000       1.000       1.000       1.000       1.000       1.000       1.000       1.000    
        1.000       1.000       1.000       1.000       1.000       1.000       1.000       1.000       1.000       1.000    
        1.000       1.000       1.000       1.000       1.000       1.000       1.000       1.000       1.000       1.000    
        1.000       1.000       1.000       1.000       1.000       1.000       1.000       1.000       1.000       1.000    
        1.000       1.000       1.000       1.000       1.000       1.000    
  95    1.000       1.000       1.000       1.000       1.000       1.000       1.000       1.000       1.000       1.000    
        1.000       0.000       1.000       1.000       1.000       1.000       1.000       1.000       1.000       1.000    
        1.000       1.000       1.000       1.000       1.000       1.000       1.000       1.000       1.000       1.000    
        1.000       1.000       1.000       1.000       1.000       1.000       1.000       1.000       1.000       1.000    
        1.000       1.000       1.000       1.000       1.000       1.000       1.000       1.000       1.000       1.000    
        1.000       1.000       1.000       1.000       1.000       1.000       1.000       1.000       1.000       1.000    
        1.000       1.000       1.000       1.000       1.000       1.000       1.000       1.000       1.000       1.000    
        1.000       1.000       1.000       1.000       1.000       1.000    
  96    1.000       1.000       1.000       1.000       1.000       1.000       1.000       1.000       1.000       1.000    
        1.000       0.000       1.000       1.000       1.000       1.000       1.000       1.000       1.000       1.000    
        1.000       1.000       1.000       1.000       1.000       1.000       1.000       1.000       1.000       1.000    
        1.000       1.000       1.000       1.000       1.000       1.000       1.000       1.000       1.000       1.000    
        1.000       1.000       1.000       1.000       1.000       1.000       1.000       1.000       1.000       1.000    
        1.000       1.000       1.000       1.000       1.000       1.000       1.000       1.000       1.000       1.000    
        1.000       1.000       1.000       1.000       1.000       1.000       1.000       1.000       1.000       1.000    
        1.000       1.000       1.000       1.000       1.000       1.000    
  97    1.000       1.000       1.000       1.000       1.000       1.000       1.000       1.000       1.000       1.000    
        0.000       0.000       1.000       1.000       1.000       1.000       1.000       1.000       1.000       1.000    
        1.000       1.000       1.000       1.000       1.000       1.000       1.000       1.000       1.000       1.000    
        1.000       1.000       1.000       1.000       1.000       1.000       1.000       1.000       1.000       1.000    
        1.000       1.000       1.000       1.000       1.000       1.000       1.000       1.000       1.000       1.000    
        1.000       1.000       1.000       1.000       1.000       1.000       1.000       1.000       1.000       1.000    
        1.000       1.000       1.000       1.000       1.000       1.000       1.000       1.000       1.000       1.000    
        1.000       1.000       1.000       1.000       1.000       1.000    
  98    1.000       1.000       1.000       1.000       1.000       1.000       1.000       1.000       1.000       1.000    
        0.000       1.000       1.000       1.000       1.000       1.000       1.000       1.000       1.000       1.000    
        1.000       1.000       1.000       1.000       1.000       1.000       1.000       1.000       1.000       1.000    
        1.000       1.000       1.000       1.000       1.000       1.000       1.000       1.000       1.000       1.000    
        1.000       1.000       1.000       1.000       1.000       1.000       1.000       1.000       1.000       1.000    
        1.000       1.000       1.000       1.000       1.000       1.000       1.000       1.000       1.000       1.000    
        1.000       1.000       1.000       1.000       1.000       1.000       1.000       1.000       1.000       1.000    
        1.000       1.000       1.000       1.000       1.000       1.000    
  99    1.000       1.000       1.000       1.000       1.000       1.000       1.000       1.000       1.000       1.000    
        0.000       1.000       1.000       1.000       1.000       1.000       1.000       1.000       1.000       1.000    
        1.000       1.000       1.000       1.000       1.000       1.000       1.000       1.000       1.000       1.000    
        1.000       1.000       1.000       1.000       1.000       1.000       1.000       1.000       1.000       1.000    
        1.000       1.000       1.000       1.000       1.000       1.000       1.000       1.000       1.000       1.000    
        1.000       1.000       1.000       1.000       1.000       1.000       1.000       1.000       1.000       1.000    
        1.000       1.000       1.000       1.000       1.000       1.000       1.000       1.000       1.000       1.000    
        1.000       1.000       1.000       1.000       1.000       1.000    
 100    1.000       1.000       1.000       1.000       1.000       1.000       1.000       1.000       1.000       0.000    
        0.000       1.000       1.000       1.000       1.000       1.000       1.000       1.000       1.000       1.000    
        1.000       1.000       1.000       1.000       1.000       1.000       1.000       1.000       1.000       1.000    
        1.000       1.000       1.000       1.000       1.000       1.000       1.000       1.000       1.000       1.000    
        1.000       1.000       1.000       1.000       1.000       1.000       1.000       1.000       1.000       1.000    
        1.000       1.000       1.000       1.000       1.000       1.000       1.000       1.000       1.000       1.000    
        1.000       1.000       1.000       1.000       1.000       1.000       1.000       1.000       1.000       1.000    
        1.000       1.000       1.000       1.000       1.000       1.000    
 101    1.000       1.000       1.000       1.000       1.000       1.000       1.000       1.000       1.000       0.000    
        1.000       1.000       1.000       1.000       1.000       1.000       1.000       1.000       1.000       1.000    
        1.000       1.000       1.000       1.000       1.000       1.000       1.000       1.000       1.000       1.000    
        1.000       1.000       1.000       1.000       1.000       1.000       1.000       1.000       1.000       1.000    
        1.000       1.000       1.000       1.000       1.000       1.000       1.000       1.000       1.000       1.000    
        1.000       1.000       1.000       1.000       1.000       1.000       1.000       1.000       1.000       1.000    
        1.000       1.000       1.000       1.000       1.000       1.000       1.000       1.000       1.000       1.000    
        1.000       1.000       1.000       1.000       1.000       1.000    
 102    1.000       1.000       1.000       1.000       1.000       1.000       1.000       1.000       1.000       0.000    
        1.000       1.000       1.000       1.000       1.000       1.000       1.000       1.000       1.000       1.000    
        1.000       1.000       1.000       1.000       1.000       1.000       1.000       1.000       1.000       1.000    
        1.000       1.000       1.000       1.000       1.000       1.000       1.000       1.000       1.000       1.000    
        1.000       1.000       1.000       1.000       1.000       1.000       1.000       1.000       1.000       1.000    
        1.000       1.000       1.000       1.000       1.000       1.000       1.000       1.000       1.000       1.000    
        1.000       1.000       1.000       1.000       1.000       1.000       1.000       1.000       1.000       1.000    
        1.000       1.000       1.000       1.000       1.000       1.000    
 103    1.000       1.000       1.000       1.000       1.000       1.000       1.000       1.000       0.000       0.000    
        1.000       1.000       1.000       1.000       1.000       1.000       1.000       1.000       1.000       1.000    
        1.000       1.000       1.000       1.000       1.000       1.000       1.000       1.000       1.000       1.000    
        1.000       1.000       1.000       1.000       1.000       1.000       1.000       1.000       1.000       1.000    
        1.000       1.000       1.000       1.000       1.000       1.000       1.000       1.000       1.000       1.000    
        1.000       1.000       1.000       1.000       1.000       1.000       1.000       1.000       1.000       1.000    
        1.000       1.000       1.000       1.000       1.000       1.000       1.000       1.000       1.000       1.000    
        1.000       1.000       1.000       1.000       1.000       1.000    
 104    1.000       1.000       1.000       1.000       1.000       1.000       1.000       1.000       0.000       0.000    
        1.000       1.000       1.000       1.000       1.000       1.000       1.000       1.000       1.000       1.000    
        1.000       1.000       1.000       1.000       1.000       1.000       1.000       1.000       1.000       1.000    
        1.000       1.000       1.000       1.000       1.000       1.000       1.000       1.000       1.000       1.000    
        1.000       1.000       1.000       1.000       1.000       0.000       0.000       0.000       0.000       0.000    
        0.000       1.000       1.000       1.000       1.000       1.000       1.000       1.000       1.000       1.000    
        1.000       1.000       1.000       1.000       1.000       1.000       1.000       1.000       1.000       1.000    
        1.000       1.000       1.000       1.000       1.000       1.000    
 105    1.000       1.000       1.000       1.000       1.000       1.000       1.000       1.000       0.000       1.000    
        1.000       1.000       1.000       1.000       1.000       1.000       1.000       1.000       1.000       1.000    
        1.000       1.000       1.000       1.000       1.000       1.000       1.000       1.000       1.000       1.000    
        1.000       1.000       1.000       1.000       1.000       1.000       1.000       1.000       1.000       1.000    
        1.000       1.000       0.000       0.000       0.000       0.000       0.000       0.000       0.000       0.000    
        0.000       0.000       0.000       0.000       0.000       0.000       0.000       0.000       1.000       1.000    
        1.000       1.000       1.000       1.000       1.000       1.000       1.000       1.000       1.000       1.000    
        1.000       1.000       1.000       1.000       1.000       1.000    
 106    1.000       1.000       1.000       1.000       1.000       1.000       1.000       1.000       0.000       1.000    
        1.000       1.000       1.000       1.000       1.000       1.000       1.000       1.000       1.000       1.000    
        1.000       1.000       1.000       1.000       1.000       1.000       1.000       1.000       1.000       1.000    
        1.000       1.000       1.000       1.000       1.000       1.000       1.000       1.000       1.000       1.000    
        1.000       1.000       0.000       0.000       0.000       0.000       0.000       0.000       0.000       0.000    
        0.000       0.000       0.000       0.000       0.000       0.000       0.000       0.000       0.000       0.000    
        0.000       0.000       0.000       1.000       1.000       1.000       1.000       1.000       1.000       1.000    
        1.000       1.000       1.000       1.000       1.000       1.000    
 107    1.000       1.000       1.000       1.000       1.000       1.000       1.000       0.000       0.000       1.000    
        1.000       1.000       1.000       1.000       1.000       1.000       1.000       1.000       1.000       1.000    
        1.000       1.000       1.000       1.000       1.000       1.000       1.000       1.000       1.000       1.000    
        1.000       1.000       1.000       1.000       1.000       1.000       1.000       1.000       1.000       1.000    
        1.000       0.000       0.000       0.000       0.000       0.000       0.000       0.000       0.000       0.000    
        0.000       0.000       0.000       0.000       0.000       0.000       0.000       0.000       0.000       0.000    
        0.000       0.000       0.000       0.000       0.000       0.000       0.000       0.000       1.000       1.000    
        1.000       1.000       1.000       1.000       1.000       1.000    
 108    1.000       1.000       1.000       1.000       1.000       1.000       1.000       0.000       1.000       1.000    
        1.000       1.000       1.000       1.000       1.000       1.000       1.000       1.000       1.000       1.000    
        1.000       1.000       1.000       1.000       1.000       1.000       1.000       1.000       1.000       1.000    
        1.000       1.000       1.000       1.000       1.000       1.000       1.000       1.000       1.000       1.000    
        1.000       0.000       0.000       0.000       0.000       0.000       0.000       0.000       0.000       0.000    
        0.000       0.000       0.000       0.000       0.000       0.000       0.000       0.000       0.000       0.000    
        0.000       0.000       0.000       0.000       0.000       0.000       0.000       0.000       0.000       0.000    
        0.000       0.000       1.000       1.000       1.000       1.000    
 109    1.000       1.000       1.000       1.000       1.000       1.000       1.000       0.000       1.000       1.000    
        1.000       1.000       1.000       1.000       1.000       1.000       1.000       1.000       1.000       1.000    
        1.000       1.000       1.000       1.000       1.000       1.000       1.000       1.000       1.000       1.000    
        1.000       1.000       1.000       1.000       1.000       1.000       1.000       1.000       1.000       1.000    
        0.000       0.000       0.000       0.000       0.000       0.000       0.000       0.000       0.000       0.000    
        0.000       0.000       0.000       0.000       0.000       0.000       0.000       0.000       0.000       0.000    
        0.000       0.000       0.000       0.000       0.000       0.000       0.000       0.000       0.000       0.000    
        0.000       0.000       0.000       0.000       0.000       1.000    
 110    1.000       1.000       1.000       1.000       1.000       1.000       0.000       0.000       1.000       1.000    
        1.000       1.000       1.000       1.000       1.000       1.000       1.000       1.000       1.000       1.000    
        1.000       1.000       1.000       1.000       1.000       1.000       1.000       1.000       1.000       1.000    
        1.000       1.000       1.000       1.000       1.000       1.000       1.000       1.000       1.000       1.000    
        0.000       0.000       0.000       0.000       0.000       0.000       0.000       0.000       0.000       0.000    
        0.000       0.000       0.000       0.000       0.000       0.000       0.000       0.000       0.000       0.000    
        0.000       0.000       0.000       0.000       0.000       0.000       0.000       0.000       0.000       0.000    
        0.000       0.000       0.000       0.000       0.000       0.000    
 111    1.000       1.000       1.000       1.000       1.000       1.000       0.000       1.000       1.000       1.000    
        1.000       1.000       1.000       1.000       1.000       1.000       1.000       1.000       1.000       1.000    
        1.000       1.000       1.000       1.000       1.000       1.000       1.000       1.000       1.000       1.000    
        1.000       1.000       1.000       1.000       1.000       1.000       1.000       1.000       1.000       0.000    
        0.000       0.000       0.000       0.000       0.000       0.000       0.000       0.000       0.000       0.000    
        0.000       0.000       0.000       0.000       0.000       0.000       0.000       0.000       0.000       0.000    
        0.000       0.000       0.000       0.000       0.000       0.000       0.000       0.000       0.000       0.000    
        0.000       0.000       0.000       0.000       0.000       0.000    
 112    1.000       1.000       1.000       1.000       1.000       1.000       0.000       1.000       1.000       1.000    
        1.000       1.000       1.000       1.000       1.000       1.000       1.000       1.000       1.000       1.000    
        1.000       1.000       1.000       1.000       1.000       1.000       1.000       1.000       1.000       1.000    
        1.000       1.000       1.000       1.000       1.000       1.000       1.000       1.000       1.000       0.000    
        0.000       0.000       0.000       0.000       0.000       0.000       0.000       0.000       0.000       0.000    
        0.000       0.000       0.000       0.000       0.000       0.000       0.000       0.000       0.000       0.000    
        0.000       0.000       0.000       0.000       0.000       0.000       0.000       0.000       0.000       0.000    
        0.000       0.000       0.000       0.000       0.000       0.000    
 113    1.000       1.000       1.000       1.000       1.000       0.000       0.000       1.000       1.000       1.000    
        1.000       1.000       1.000       1.000       1.000       1.000       1.000       1.000       1.000       1.000    
        1.000       1.000       1.000       1.000       1.000       1.000       1.000       1.000       1.000       1.000    
        1.000       1.000       1.000       1.000       1.000       1.000       1.000       1.000       0.000       0.000    
        0.000       0.000       0.000       0.000       0.000       0.000       0.000       0.000       0.000       0.000    
        0.000       0.000       0.000       0.000       0.000       0.000       0.000       0.000       0.000       0.000    
        0.000       0.000       0.000       0.000       0.000       0.000       0.000       0.000       0.000       0.000    
        0.000       0.000       0.000       0.000       0.000       0.000    
 114    1.000       1.000       1.000       1.000       1.000       0.000       1.000       1.000       1.000       1.000    
        1.000       1.000       1.000       1.000       1.000       1.000       1.000       1.000       1.000       1.000    
        1.000       1.000       1.000       1.000       1.000       1.000       1.000       1.000       1.000       1.000    
        1.000       1.000       1.000       1.000       1.000       1.000       1.000       1.000       0.000       0.000    
        0.000       0.000       0.000       0.000       0.000       0.000       0.000       0.000       0.000       0.000    
        0.000       0.000       0.000       0.000       0.000       0.000       0.000       0.000       0.000       0.000    
        0.000       0.000       0.000       0.000       0.000       0.000       0.000       0.000       0.000       0.000    
        0.000       0.000       0.000       0.000       0.000       0.000    
 115    1.000       1.000       1.000       1.000       1.000       0.000       1.000       1.000       1.000       1.000    
        1.000       1.000       1.000       1.000       1.000       1.000       1.000       1.000       1.000       1.000    
        1.000       1.000       1.000       1.000       1.000       1.000       1.000       1.000       1.000       1.000    
        1.000       1.000       1.000       1.000       1.000       1.000       1.000       1.000       1.000       0.000    
        0.000       0.000       0.000       0.000       0.000       0.000       0.000       0.000       0.000       0.000    
        0.000       0.000       0.000       0.000       0.000       0.000       0.000       0.000       0.000       0.000    
        0.000       0.000       0.000       0.000       0.000       0.000       0.000       0.000       0.000       0.000    
        0.000       0.000       0.000       0.000       0.000       0.000    
 116    1.000       1.000       1.000       1.000       0.000       0.000       1.000       1.000       1.000       1.000    
        1.000       1.000       1.000       1.000       1.000       1.000       1.000       1.000       1.000       1.000    
        1.000       1.000       1.000       1.000       1.000       1.000       1.000       1.000       1.000       1.000    
        1.000       1.000       1.000       1.000       1.000       1.000       1.000       1.000       1.000       0.000    
        0.000       0.000       0.000       0.000       0.000       0.000       0.000       0.000       0.000       0.000    
        0.000       0.000       0.000       0.000       0.000       0.000       0.000       0.000       0.000       0.000    
        0.000       0.000       0.000       0.000       0.000       0.000       0.000       0.000       0.000       0.000    
        0.000       0.000       0.000       0.000       0.000       0.000    
 117    1.000       1.000       1.000       1.000       0.000       1.000       1.000       1.000       1.000       1.000    
        1.000       1.000       1.000       1.000       1.000       1.000       1.000       1.000       1.000       1.000    
        1.000       1.000       1.000       1.000       1.000       1.000       1.000       1.000       1.000       1.000    
        1.000       1.000       1.000       1.000       1.000       1.000       1.000       1.000       1.000       1.000    
        0.000       0.000       0.000       0.000       0.000       0.000       0.000       0.000       0.000       0.000    
        0.000       0.000       0.000       0.000       0.000       0.000       0.000       0.000       0.000       0.000    
        0.000       0.000       0.000       0.000       0.000       0.000       0.000       0.000       0.000       0.000    
        0.000       0.000       0.000       0.000       0.000       0.000    
 118    1.000       1.000       1.000       1.000       0.000       1.000       1.000       1.000       1.000       1.000    
        1.000       1.000       1.000       1.000       1.000       1.000       1.000       1.000       1.000       1.000    
        1.000       1.000       1.000       1.000       1.000       1.000       1.000       1.000       1.000       1.000    
        1.000       1.000       1.000       1.000       1.000       1.000       1.000       1.000       1.000       1.000    
        0.000       0.000       0.000       0.000       0.000       0.000       0.000       0.000       0.000       0.000    
        0.000       0.000       0.000       0.000       0.000       0.000       0.000       0.000       0.000       0.000    
        0.000       0.000       0.000       0.000       0.000       0.000       0.000       0.000       0.000       0.000    
        0.000       0.000       0.000       0.000       0.000       0.000    
 119    1.000       1.000       1.000       1.000       0.000       1.000       1.000       1.000       1.000       1.000    
        1.000       1.000       1.000       1.000       1.000       1.000       1.000       1.000       1.000       1.000    
        1.000       1.000       1.000       1.000       1.000       1.000       1.000       1.000       1.000       1.000    
        1.000       1.000       1.000       1.000       1.000       1.000       1.000       1.000       1.000       1.000    
        1.000       0.000       0.000       0.000       0.000       0.000       0.000       0.000       0.000       0.000    
        0.000       0.000       0.000       0.000       0.000       0.000       0.000       0.000       0.000       0.000    
        0.000       0.000       0.000       0.000       0.000       0.000       0.000       0.000       0.000       0.000    
        0.000       0.000       0.000       0.000       0.000       0.000    
 120    1.000       1.000       1.000       0.000       1.000       1.000       1.000       1.000       1.000       1.000    
        1.000       1.000       1.000       1.000       1.000       1.000       1.000       1.000       1.000       1.000    
        1.000       1.000       1.000       1.000       1.000       1.000       1.000       1.000       1.000       1.000    
        1.000       1.000       1.000       1.000       1.000       1.000       1.000       1.000       1.000       1.000    
        1.000       0.000       0.000       0.000       0.000       0.000       0.000       0.000       0.000       0.000    
        0.000       0.000       0.000       0.000       0.000       0.000       0.000       0.000       0.000       0.000    
        0.000       0.000       0.000       0.000       0.000       0.000       0.000       0.000       0.000       0.000    
        0.000       0.000       0.000       0.000       0.000       0.000    
 121    1.000       1.000       1.000       0.000       1.000       1.000       1.000       1.000       1.000       1.000    
        1.000       1.000       1.000       1.000       1.000       1.000       1.000       1.000       1.000       1.000    
        1.000       1.000       1.000       1.000       1.000       1.000       1.000       1.000       1.000       1.000    
        1.000       1.000       1.000       1.000       1.000       1.000       1.000       1.000       1.000       1.000    
        1.000       1.000       0.000       0.000       0.000       0.000       0.000       0.000       0.000       0.000    
        0.000       0.000       0.000       0.000       0.000       0.000       0.000       0.000       0.000       0.000    
        0.000       0.000       0.000       0.000       0.000       0.000       0.000       0.000       0.000       0.000    
        0.000       0.000       0.000       0.000       0.000       0.000    
 122    1.000       1.000       1.000       0.000       1.000       1.000       1.000       1.000       1.000       1.000    
        1.000       1.000       1.000       1.000       1.000       1.000       1.000       1.000       1.000       1.000    
        1.000       1.000       1.000       1.000       1.000       1.000       1.000       1.000       1.000       1.000    
        1.000       1.000       1.000       1.000       1.000       1.000       1.000       1.000       1.000       1.000    
        1.000       1.000       1.000       0.000       0.000       0.000       0.000       0.000       0.000       0.000    
        0.000       0.000       0.000       0.000       0.000       0.000       0.000       0.000       0.000       0.000    
        0.000       0.000       0.000       0.000       0.000       0.000       0.000       0.000       0.000       0.000    
        0.000       0.000       0.000       0.000       0.000       0.000    
 123    1.000       1.000       0.000       1.000       1.000       1.000       1.000       1.000       1.000       1.000    
        1.000       1.000       1.000       1.000       1.000       1.000       1.000       1.000       1.000       1.000    
        1.000       1.000       1.000       1.000       1.000       1.000       1.000       1.000       1.000       1.000    
        1.000       1.000       1.000       1.000       1.000       1.000       1.000       1.000       1.000       1.000    
        1.000       1.000       1.000       0.000       0.000       0.000       0.000       0.000       0.000       0.000    
        0.000       0.000       0.000       0.000       0.000       0.000       0.000       0.000       0.000       0.000    
        0.000       0.000       0.000       0.000       0.000       0.000       0.000       0.000       0.000       0.000    
        0.000       0.000       0.000       0.000       0.000       0.000    
 124    1.000       1.000       0.000       1.000       1.000       1.000       1.000       1.000       1.000       1.000    
        1.000       1.000       1.000       1.000       1.000       1.000       1.000       1.000       1.000       1.000    
        1.000       1.000       1.000       1.000       1.000       1.000       1.000       1.000       1.000       1.000    
        1.000       1.000       1.000       1.000       1.000       1.000       1.000       1.000       1.000       1.000    
        1.000       1.000       1.000       1.000       0.000       0.000       0.000       0.000       0.000       0.000    
        0.000       0.000       0.000       0.000       0.000       0.000       0.000       0.000       0.000       0.000    
        0.000       0.000       0.000       0.000       0.000       0.000       0.000       0.000       0.000       0.000    
        0.000       0.000       0.000       0.000       0.000       0.000    
 125    1.000       1.000       1.000       1.000       1.000       1.000       1.000       1.000       1.000       1.000    
        1.000       1.000       1.000       1.000       1.000       1.000       1.000       1.000       1.000       1.000    
        1.000       1.000       1.000       1.000       1.000       1.000       1.000       1.000       1.000       1.000    
        1.000       1.000       1.000       1.000       1.000       1.000       1.000       1.000       1.000       1.000    
        1.000       1.000       1.000       1.000       1.000       0.000       0.000       0.000       0.000       0.000    
        0.000       0.000       0.000       0.000       0.000       0.000       0.000       0.000       0.000       0.000    
        0.000       0.000       0.000       0.000       0.000       0.000       0.000       0.000       0.000       0.000    
        0.000       0.000       0.000       0.000       0.000       0.000    
 126    1.000       1.000       1.000       1.000       1.000       1.000       1.000       1.000       1.000       1.000    
        1.000       1.000       1.000       1.000       1.000       1.000       1.000       1.000       1.000       1.000    
        1.000       1.000       1.000       1.000       1.000       1.000       1.000       1.000       1.000       1.000    
        1.000       1.000       1.000       1.000       1.000       1.000       1.000       1.000       1.000       1.000    
        1.000       1.000       1.000       1.000       1.000       0.000       0.000       0.000       0.000       0.000    
        0.000       0.000       0.000       0.000       0.000       0.000       0.000       0.000       0.000       0.000    
        0.000       0.000       0.000       0.000       0.000       0.000       0.000       0.000       0.000       0.000    
        0.000       0.000       0.000       0.000       0.000       0.000    
 127    1.000       1.000       1.000       1.000       1.000       1.000       1.000       1.000       1.000       1.000    
        1.000       1.000       1.000       1.000       1.000       1.000       1.000       1.000       1.000       1.000    
        1.000       1.000       1.000       1.000       1.000       1.000       1.000       1.000       1.000       1.000    
        1.000       1.000       1.000       1.000       1.000       1.000       1.000       1.000       1.000       1.000    
        1.000       1.000       1.000       1.000       1.000       1.000       0.000       0.000       0.000       0.000    
        0.000       0.000       0.000       0.000       0.000       0.000       0.000       0.000       0.000       0.000    
        0.000       0.000       0.000       0.000       0.000       0.000       0.000       0.000       0.000       0.000    
        0.000       0.000       0.000       0.000       0.000       0.000    
 128    1.000       1.000       1.000       1.000       1.000       1.000       1.000       1.000       1.000       1.000    
        1.000       1.000       1.000       1.000       1.000       1.000       1.000       1.000       1.000       1.000    
        1.000       1.000       1.000       1.000       1.000       1.000       1.000       1.000       1.000       1.000    
        1.000       1.000       1.000       1.000       1.000       1.000       1.000       1.000       1.000       1.000    
        1.000       1.000       1.000       1.000       1.000       1.000       1.000       0.000       0.000       0.000    
        0.000       0.000       0.000       0.000       0.000       0.000       0.000       0.000       0.000       0.000    
        0.000       0.000       0.000       0.000       0.000       0.000       0.000       0.000       0.000       0.000    
        0.000       0.000       0.000       0.000       0.000       0.000    
 129    1.000       1.000       1.000       1.000       1.000       1.000       1.000       1.000       1.000       1.000    
        1.000       1.000       1.000       1.000       1.000       1.000       1.000       1.000       1.000       1.000    
        1.000       1.000       1.000       1.000       1.000       1.000       1.000       1.000       1.000       1.000    
        1.000       1.000       1.000       1.000       1.000       1.000       1.000       1.000       1.000       1.000    
        1.000       1.000       1.000       1.000       1.000       1.000       1.000       1.000       0.000       0.000    
        0.000       0.000       0.000       0.000       0.000       0.000       0.000       0.000       0.000       0.000    
        0.000       0.000       0.000       0.000       0.000       0.000       0.000       0.000       0.000       0.000    
        0.000       0.000       0.000       0.000       0.000       0.000    
 130    1.000       1.000       1.000       1.000       1.000       1.000       1.000       1.000       1.000       1.000    
        1.000       1.000       1.000       1.000       1.000       1.000       1.000       1.000       1.000       1.000    
        1.000       1.000       1.000       1.000       1.000       1.000       1.000       1.000       1.000       1.000    
        1.000       1.000       1.000       1.000       1.000       1.000       1.000       1.000       1.000       1.000    
        1.000       1.000       1.000       1.000       1.000       1.000       1.000       1.000       1.000       0.000    
        0.000       0.000       0.000       0.000       0.000       0.000       0.000       0.000       0.000       0.000    
        0.000       0.000       0.000       0.000       0.000       0.000       0.000       0.000       0.000       0.000    
        0.000       0.000       0.000       0.000       0.000       0.000    
 131    1.000       1.000       1.000       1.000       1.000       1.000       1.000       1.000       1.000       1.000    
        1.000       0.000       0.000       0.000       0.000       0.000       0.000       1.000       1.000       1.000    
        1.000       1.000       1.000       1.000       1.000       1.000       1.000       1.000       1.000       1.000    
        1.000       1.000       1.000       1.000       1.000       1.000       1.000       1.000       1.000       1.000    
        0.000       0.000       0.000       0.000       0.000       1.000       1.000       1.000       1.000       0.000    
        0.000       0.000       0.000       0.000       0.000       0.000       0.000       0.000       0.000       0.000    
        0.000       0.000       0.000       0.000       0.000       0.000       0.000       0.000       0.000       0.000    
        0.000       0.000       0.000       0.000       0.000       0.000    

 RIV -- RIVER PACKAGE, VERSION 7, 5/2/2005 INPUT READ FROM UNIT 5021
 # RIV: River package file created on 1/26/2022 by ModelMuse version 4.3.0.0.
 No named parameters
 MAXIMUM OF    706 ACTIVE RIVER REACHES AT ONE TIME
 CELL-BY-CELL FLOWS WILL BE SAVED ON UNIT    9
 AUXILIARY RIVER VARIABLE: IFACE           


     0 River parameters

 RCH -- RECHARGE PACKAGE, VERSION 7, 5/2/2005 INPUT READ FROM UNIT 5024
 # RCH: Recharge package file created on 1/26/2022 by ModelMuse version 4.3.0.0.
 No named parameters
 OPTION 3 -- RECHARGE TO HIGHEST ACTIVE NODE IN EACH VERTICAL COLUMN
 CELL-BY-CELL FLOWS WILL BE SAVED ON UNIT    9


     0 Recharge parameters
1
                            STRESS PERIOD NO.    1, LENGTH =   15000.00    
                            -----------------------------------------------

                              NUMBER OF TIME STEPS = 15000

                               MULTIPLIER FOR DELT =     1.000

                            INITIAL TIME STEP SIZE =   1.000000    

 REACH NO.  LAYER   ROW   COL     STAGE      CONDUCTANCE     BOTTOM EL.         IFACE           
 -----------------------------------------------------------------------------------------------
      1      1      6     73       3398.          0.2274E+05       3397.           0.000    
      2      1      7     73       3334.          0.2524E+05       3333.           0.000    
      3      1      8     73       3311.          0.2362E+05       3310.           0.000    
      4      1      9     63       3206.          0.1229E+05       3205.           0.000    
      5      1      9     72       3189.          0.1683E+05       3189.           0.000    
      6      1      9     73       3354.          0.1252E+05       3353.           0.000    
      7      1     10     58       3175.           207.5           3174.           0.000    
      8      1     10     62       3224.          0.1479E+05       3224.           0.000    
      9      1     10     63       3330.           1482.           3329.           0.000    
     10      1     10     72       3079.          0.2573E+05       3078.           0.000    
     11      1     11     58       3157.          0.1631E+05       3156.           0.000    
     12      1     11     62       3136.          0.1580E+05       3135.           0.000    
     13      1     11     71       3134.          0.1120E+05       3133.           0.000    
     14      1     11     72       3076.          0.2065E+05       3075.           0.000    
     15      1     12     57       3176.           1393.           3175.           0.000    
     16      1     12     58       3157.          0.1560E+05       3156.           0.000    
     17      1     12     58       3157.          0.1560E+05       3156.           0.000    
     18      1     12     62       3094.          0.1741E+05       3093.           0.000    
     19      1     12     71       2991.          0.2643E+05       2990.           0.000    
     20      1     13     57       3213.           978.1           3213.           0.000    
     21      1     13     58       3155.          0.1526E+05       3155.           0.000    
     22      1     13     58       3155.          0.1526E+05       3155.           0.000    
     23      1     13     62       3045.          0.1748E+05       3044.           0.000    
     24      1     13     69       3314.           5489.           3313.           0.000    
     25      1     13     70       3022.          0.2955E+05       3021.           0.000    
     26      1     13     71       3189.           7773.           3188.           0.000    
     27      1     14     58       3023.          0.1807E+05       3022.           0.000    
     28      1     14     62       3035.          0.1770E+05       3035.           0.000    
     29      1     14     63       3178.           898.5           3177.           0.000    
     30      1     14     68       3130.           8842.           3129.           0.000    
     31      1     14     69       2989.          0.4178E+05       2988.           0.000    
     32      1     14     69       2989.          0.4178E+05       2988.           0.000    
     33      1     14     69       2989.          0.4178E+05       2988.           0.000    
     34      1     15     55       3217.           7984.           3216.           0.000    
     35      1     15     56       3020.          0.1876E+05       3020.           0.000    
     36      1     15     57       3032.          0.1725E+05       3032.           0.000    
     37      1     15     58       3011.          0.3125E+05       3010.           0.000    
     38      1     15     58       3011.          0.3125E+05       3010.           0.000    
     39      1     15     58       3011.          0.3125E+05       3010.           0.000    
     40      1     15     59       2947.          0.2956E+05       2946.           0.000    
     41      1     15     60       3031.          0.1863E+05       3030.           0.000    
     42      1     15     63       2966.          0.1633E+05       2965.           0.000    
     43      1     15     64       3013.           3692.           3012.           0.000    
     44      1     15     65       2928.          0.3720E+05       2927.           0.000    
     45      1     15     66       2953.          0.3433E+05       2952.           0.000    
     46      1     15     67       3036.          0.3281E+05       3035.           0.000    
     47      1     15     68       3118.          0.2628E+05       3117.           0.000    
     48      1     15     69       3114.          0.1292E+05       3114.           0.000    
     49      1     16     53       3202.          0.1002E+05       3201.           0.000    
     50      1     16     54       3104.          0.1673E+05       3104.           0.000    
     51      1     16     55       3115.          0.1032E+05       3114.           0.000    
     52      1     16     60       2970.          0.1972E+05       2969.           0.000    
     53      1     16     61       2951.          0.3042E+05       2950.           0.000    
     54      1     16     62       2901.           1599.           2901.           0.000    
     55      1     16     63       2845.          0.3967E+05       2845.           0.000    
     56      1     16     63       2845.          0.3967E+05       2845.           0.000    
     57      1     16     64       2962.          0.3037E+05       2961.           0.000    
     58      1     16     69       3351.           2751.           3351.           0.000    
     59      1     16     70       3164.          0.1062E+05       3163.           0.000    
     60      1     17     62       2835.          0.6310E+05       2834.           0.000    
     61      1     17     62       2835.          0.6310E+05       2834.           0.000    
     62      1     17     62       2835.          0.6310E+05       2834.           0.000    
     63      1     17     63       3007.          0.2700E+05       3006.           0.000    
     64      1     17     63       3007.          0.2700E+05       3006.           0.000    
     65      1     17     63       3007.          0.2700E+05       3006.           0.000    
     66      1     17     70       3223.           2224.           3222.           0.000    
     67      1     18     62       2880.          0.5270E+05       2879.           0.000    
     68      1     19     62       2955.          0.5618E+05       2953.           0.000    
     69      1     20     62       2958.          0.5845E+05       2957.           0.000    
     70      1     21     62       2950.          0.5907E+05       2949.           0.000    
     71      1     22     62       2947.          0.5536E+05       2946.           0.000    
     72      1     23     62       2938.          0.5495E+05       2936.           0.000    
     73      1     24     54       3112.          0.1398E+05       3111.           0.000    
     74      1     24     62       2908.          0.5453E+05       2907.           0.000    
     75      1     25     46       3076.           3943.           3075.           0.000    
     76      1     25     54       3052.          0.2500E+05       3052.           0.000    
     77      1     25     62       2855.          0.6057E+05       2853.           0.000    
     78      1     26     46       2969.          0.2269E+05       2969.           0.000    
     79      1     26     54       3001.          0.2762E+05       3000.           0.000    
     80      1     26     62       2882.          0.5709E+05       2881.           0.000    
     81      1     26     62       2882.          0.5709E+05       2881.           0.000    
     82      1     26     62       2882.          0.5709E+05       2881.           0.000    
     83      1     26     63       2891.          0.1982E+05       2890.           0.000    
     84      1     26     64       3054.          0.1387E+05       3054.           0.000    
     85      1     27     46       2966.          0.2313E+05       2965.           0.000    
     86      1     27     54       2990.          0.2668E+05       2989.           0.000    
     87      1     27     62       2824.          0.7121E+05       2822.           0.000    
     88      1     27     64       3144.           3398.           3143.           0.000    
     89      1     27     65       3043.          0.1574E+05       3042.           0.000    
     90      1     27     66       3054.          0.1716E+05       3053.           0.000    
     91      1     27     67       3146.           8943.           3145.           0.000    
     92      1     28     46       2923.          0.2396E+05       2922.           0.000    
     93      1     28     53       2997.          0.1368E+05       2996.           0.000    
     94      1     28     54       3033.          0.1173E+05       3032.           0.000    
     95      1     28     62       2872.          0.7428E+05       2870.           0.000    
     96      1     29     38       2917.          0.1023E+05       2916.           0.000    
     97      1     29     46       2923.          0.2138E+05       2922.           0.000    
     98      1     29     47       2944.           2972.           2943.           0.000    
     99      1     29     53       2992.          0.2067E+05       2991.           0.000    
    100      1     29     53       2992.          0.2067E+05       2991.           0.000    
    101      1     29     54       2991.           4678.           2990.           0.000    
    102      1     29     54       2991.           4678.           2990.           0.000    
    103      1     29     61       2993.           6181.           2992.           0.000    
    104      1     29     62       2938.          0.6257E+05       2936.           0.000    
    105      1     29     62       2938.          0.6257E+05       2936.           0.000    
    106      1     30     37       2938.          0.1062E+05       2937.           0.000    
    107      1     30     38       2949.           6381.           2948.           0.000    
    108      1     30     47       2796.          0.2477E+05       2795.           0.000    
    109      1     30     53       3000.          0.2341E+05       2999.           0.000    
    110      1     30     54       3075.           149.3           3074.           0.000    
    111      1     30     61       2877.          0.2715E+05       2875.           0.000    
    112      1     30     62       2884.          0.4811E+05       2882.           0.000    
    113      1     31     37       2867.          0.1307E+05       2866.           0.000    
    114      1     31     37       2867.          0.1307E+05       2866.           0.000    
    115      1     31     38       2911.           4050.           2911.           0.000    
    116      1     31     47       2812.          0.1602E+05       2812.           0.000    
    117      1     31     48       2779.          0.1197E+05       2778.           0.000    
    118      1     31     53       2900.          0.2640E+05       2899.           0.000    
    119      1     31     60       2779.          0.5116E+05       2778.           0.000    
    120      1     31     61       2744.          0.5536E+05       2742.           0.000    
    121      1     32     37       2864.           7427.           2863.           0.000    
    122      1     32     37       2864.           7427.           2863.           0.000    
    123      1     32     38       2847.           7561.           2846.           0.000    
    124      1     32     38       2847.           7561.           2846.           0.000    
    125      1     32     48       2694.          0.2793E+05       2693.           0.000    
    126      1     32     49       2704.           1883.           2703.           0.000    
    127      1     32     52       2934.          0.1091E+05       2933.           0.000    
    128      1     32     53       2939.          0.1529E+05       2938.           0.000    
    129      1     32     59       2863.          0.3335E+05       2861.           0.000    
    130      1     32     60       2764.          0.5038E+05       2762.           0.000    
    131      1     33     38       2766.          0.1746E+05       2765.           0.000    
    132      1     33     38       2766.          0.1746E+05       2765.           0.000    
    133      1     33     39       2802.          0.1222E+05       2801.           0.000    
    134      1     33     40       2837.          0.1059E+05       2836.           0.000    
    135      1     33     49       2643.          0.2987E+05       2643.           0.000    
    136      1     33     52       2866.          0.2463E+05       2865.           0.000    
    137      1     33     59       2700.          0.7772E+05       2698.           0.000    
    138      1     34     37       2753.          0.1967E+05       2753.           0.000    
    139      1     34     37       2753.          0.1967E+05       2753.           0.000    
    140      1     34     37       2753.          0.1967E+05       2753.           0.000    
    141      1     34     38       2791.          0.1607E+05       2790.           0.000    
    142      1     34     38       2791.          0.1607E+05       2790.           0.000    
    143      1     34     39       2860.           1772.           2860.           0.000    
    144      1     34     40       2866.           3976.           2865.           0.000    
    145      1     34     40       2866.           3976.           2865.           0.000    
    146      1     34     41       2869.           8117.           2868.           0.000    
    147      1     34     49       2573.          0.2281E+05       2572.           0.000    
    148      1     34     49       2573.          0.2281E+05       2572.           0.000    
    149      1     34     50       2672.           4938.           2671.           0.000    
    150      1     34     52       2817.          0.2505E+05       2816.           0.000    
    151      1     34     58       2657.          0.5526E+05       2655.           0.000    
    152      1     34     59       2801.          0.2234E+05       2800.           0.000    
    153      1     35     37       2764.          0.3818E+05       2763.           0.000    
    154      1     35     49       2512.          0.4193E+05       2511.           0.000    
    155      1     35     49       2512.          0.4193E+05       2511.           0.000    
    156      1     35     49       2512.          0.4193E+05       2511.           0.000    
    157      1     35     50       2629.          0.2607E+05       2628.           0.000    
    158      1     35     51       2690.          0.2572E+05       2689.           0.000    
    159      1     35     52       2769.          0.2293E+05       2769.           0.000    
    160      1     35     58       2591.          0.6623E+05       2590.           0.000    
    161      1     36     37       2761.          0.4268E+05       2760.           0.000    
    162      1     36     49       2593.          0.3858E+05       2592.           0.000    
    163      1     36     57       2657.          0.6059E+05       2655.           0.000    
    164      1     36     57       2657.          0.6059E+05       2655.           0.000    
    165      1     36     57       2657.          0.6059E+05       2655.           0.000    
    166      1     36     58       2644.          0.3084E+05       2642.           0.000    
    167      1     37     36       2723.          0.3862E+05       2721.           0.000    
    168      1     37     37       2814.           6046.           2813.           0.000    
    169      1     37     49       2606.          0.3746E+05       2605.           0.000    
    170      1     37     53       2580.          0.5873E+05       2579.           0.000    
    171      1     38     53       2700.          0.1951E+05       2698.           0.000    
    172      1     38     54       2779.           7615.           2777.           0.000    
    173      1     37     54       2571.          0.7477E+05       2570.           0.000    
    174      1     37     55       2611.          0.7509E+05       2609.           0.000    
    175      1     37     56       2619.          0.8022E+05       2618.           0.000    
    176      1     37     57       2609.          0.3907E+05       2608.           0.000    
    177      1     37     57       2609.          0.3907E+05       2608.           0.000    
    178      1     37     58       2706.          0.1479E+05       2705.           0.000    
    179      1     37     59       2990.           4064.           2990.           0.000    
    180      1     38     36       2733.          0.4662E+05       2731.           0.000    
    181      1     38     49       2658.          0.1253E+05       2657.           0.000    
    182      1     38     50       2547.          0.4436E+05       2546.           0.000    
    183      1     38     50       2547.          0.4436E+05       2546.           0.000    
    184      1     38     51       2570.          0.6632E+05       2568.           0.000    
    185      1     38     51       2570.          0.6632E+05       2568.           0.000    
    186      1     38     52       2478.          0.7857E+05       2477.           0.000    
    187      1     38     53       2700.          0.1951E+05       2698.           0.000    
    188      1     38     54       2779.           7615.           2777.           0.000    
    189      1     38     59       2903.          0.1219E+05       2903.           0.000    
    190      1     39     35       2675.          0.3969E+05       2673.           0.000    
    191      1     39     36       2796.           6267.           2795.           0.000    
    192      1     39     50       2438.          0.1105E+06       2436.           0.000    
    193      1     39     50       2438.          0.1105E+06       2436.           0.000    
    194      1     39     50       2438.          0.1105E+06       2436.           0.000    
    195      1     39     51       2628.          0.1469E+05       2626.           0.000    
    196      1     40     34       2720.          0.1766E+05       2719.           0.000    
    197      1     40     35       2649.          0.4548E+05       2647.           0.000    
    198      1     40     49       2476.          0.7709E+05       2474.           0.000    
    199      1     40     50       2621.          0.2725E+05       2619.           0.000    
    200      1     40     50       2621.          0.2725E+05       2619.           0.000    
    201      1     41     34       2676.          0.1803E+05       2674.           0.000    
    202      1     41     34       2676.          0.1803E+05       2674.           0.000    
    203      1     41     35       2694.          0.2577E+05       2693.           0.000    
    204      1     41     49       2517.          0.1934E+05       2515.           0.000    
    205      1     41     50       2538.          0.7875E+05       2536.           0.000    
    206      1     42     34       2679.          0.3283E+05       2678.           0.000    
    207      1     42     35       2691.           9462.           2690.           0.000    
    208      1     42     49       2362.          0.9696E+05       2360.           0.000    
    209      1     43     35       2595.          0.4136E+05       2593.           0.000    
    210      1     43     49       2393.          0.8259E+05       2391.           0.000    
    211      1     44     35       2551.          0.3829E+05       2550.           0.000    
    212      1     44     49       2386.          0.8844E+05       2384.           0.000    
    213      1     45     35       2513.          0.3912E+05       2512.           0.000    
    214      1     45     47       2537.           3654.           2536.           0.000    
    215      1     45     49       2379.          0.8876E+05       2377.           0.000    
    216      1     46     35       2495.          0.4223E+05       2494.           0.000    
    217      1     46     47       2490.          0.2187E+05       2490.           0.000    
    218      1     46     49       2402.          0.9768E+05       2400.           0.000    
    219      1     47     32       2650.           7432.           2649.           0.000    
    220      1     47     33       2604.          0.1972E+05       2603.           0.000    
    221      1     47     34       2598.          0.1737E+05       2597.           0.000    
    222      1     47     35       2501.          0.3938E+05       2500.           0.000    
    223      1     47     35       2501.          0.3938E+05       2500.           0.000    
    224      1     47     36       2433.          0.5132E+05       2432.           0.000    
    225      1     47     36       2433.          0.5132E+05       2432.           0.000    
    226      1     47     36       2433.          0.5132E+05       2432.           0.000    
    227      1     47     40       2681.           3061.           2680.           0.000    
    228      1     47     47       2420.          0.1806E+05       2419.           0.000    
    229      1     47     48       2401.          0.6448E+05       2399.           0.000    
    230      1     47     48       2401.          0.6448E+05       2399.           0.000    
    231      1     47     48       2401.          0.6448E+05       2399.           0.000    
    232      1     47     49       2390.          0.5112E+05       2388.           0.000    
    233      1     47     49       2390.          0.5112E+05       2388.           0.000    
    234      1     47     50       2701.           4663.           2701.           0.000    
    235      1     48     32       2670.           6276.           2669.           0.000    
    236      1     48     36       2571.           3754.           2570.           0.000    
    237      1     48     37       2412.          0.4854E+05       2411.           0.000    
    238      1     48     39       2637.           3985.           2636.           0.000    
    239      1     48     40       2590.          0.1065E+05       2590.           0.000    
    240      1     48     47       2382.          0.1834E+05       2381.           0.000    
    241      1     48     48       2325.          0.9264E+05       2323.           0.000    
    242      1     48     49       2489.           5120.           2488.           0.000    
    243      1     48     50       2667.          0.1048E+05       2666.           0.000    
    244      1     48     50       2667.          0.1048E+05       2666.           0.000    
    245      1     48     51       2788.          0.1632E+05       2788.           0.000    
    246      1     48     52       2893.          0.1286E+05       2892.           0.000    
    247      1     48     62       3425.          0.1604E+05       3423.           0.000    
    248      1     48     63       3283.          0.4596E+05       3282.           0.000    
    249      1     49     37       2433.          0.3947E+05       2432.           0.000    
    250      1     49     38       2418.          0.2863E+05       2416.           0.000    
    251      1     49     39       2457.          0.1474E+05       2456.           0.000    
    252      1     50     47       2257.          0.1357E+06       2255.           0.000    
    253      1     49     47       2310.          0.5609E+05       2309.           0.000    
    254      1     49     48       2308.          0.1118E+06       2306.           0.000    
    255      1     50     48       2333.           3708.           2331.           0.000    
    256      1     49     61       3284.          0.4447E+05       3283.           0.000    
    257      1     49     62       3308.          0.4841E+05       3307.           0.000    
    258      1     50     38       2407.          0.3491E+05       2406.           0.000    
    259      1     50     39       2348.          0.5557E+05       2347.           0.000    
    260      1     50     39       2348.          0.5557E+05       2347.           0.000    
    261      1     50     39       2348.          0.5557E+05       2347.           0.000    
    262      1     50     46       2266.          0.1294E+05       2265.           0.000    
    263      1     50     47       2257.          0.1357E+06       2255.           0.000    
    264      1     50     47       2257.          0.1357E+06       2255.           0.000    
    265      1     50     48       2333.           3708.           2331.           0.000    
    266      1     50     48       2333.           3708.           2331.           0.000    
    267      1     50     59       3047.          0.1428E+05       3046.           0.000    
    268      1     50     60       3063.          0.5542E+05       3062.           0.000    
    269      1     50     61       3308.           8200.           3307.           0.000    
    270      1     51     39       2377.          0.5135E+05       2375.           0.000    
    271      1     51     39       2377.          0.5135E+05       2375.           0.000    
    272      1     51     40       2406.          0.2388E+05       2404.           0.000    
    273      1     51     40       2406.          0.2388E+05       2404.           0.000    
    274      1     51     46       2229.          0.2220E+05       2228.           0.000    
    275      1     51     47       2244.          0.1350E+06       2242.           0.000    
    276      1     51     58       3012.           6025.           3011.           0.000    
    277      1     51     58       3012.           6025.           3011.           0.000    
    278      1     51     59       2928.          0.5863E+05       2927.           0.000    
    279      1     51     59       2928.          0.5863E+05       2927.           0.000    
    280      1     52     40       2308.          0.8023E+05       2307.           0.000    
    281      1     52     46       2181.          0.1826E+05       2181.           0.000    
    282      1     52     47       2218.          0.1097E+06       2216.           0.000    
    283      1     52     58       2834.          0.5513E+05       2832.           0.000    
    284      1     53     40       2319.          0.6810E+05       2318.           0.000    
    285      1     53     40       2319.          0.6810E+05       2318.           0.000    
    286      1     53     41       2371.           4916.           2369.           0.000    
    287      1     53     46       2127.          0.8574E+05       2125.           0.000    
    288      1     53     46       2127.          0.8574E+05       2125.           0.000    
    289      1     53     46       2127.          0.8574E+05       2125.           0.000    
    290      1     53     47       2131.          0.1192E+06       2129.           0.000    
    291      1     53     57       2809.           1963.           2807.           0.000    
    292      1     53     58       2801.          0.5050E+05       2800.           0.000    
    293      1     54     40       2380.          0.1193E+05       2379.           0.000    
    294      1     54     41       2301.          0.5573E+05       2299.           0.000    
    295      1     54     46       2078.          0.1133E+06       2076.           0.000    
    296      1     54     57       2676.          0.5509E+05       2675.           0.000    
    297      1     55     41       2233.          0.5841E+05       2231.           0.000    
    298      1     55     46       2055.          0.9688E+05       2052.           0.000    
    299      1     55     56       2649.          0.3116E+05       2648.           0.000    
    300      1     55     57       2664.          0.2155E+05       2662.           0.000    
    301      1     56     41       2207.          0.5609E+05       2206.           0.000    
    302      1     56     45       2086.          0.7604E+05       2084.           0.000    
    303      1     56     46       2043.          0.1978E+05       2041.           0.000    
    304      1     56     56       2568.          0.4627E+05       2566.           0.000    
    305      1     57     41       2192.          0.6317E+05       2191.           0.000    
    306      1     57     42       2186.           5582.           2185.           0.000    
    307      1     57     45       2035.          0.1053E+06       2033.           0.000    
    308      1     57     46       2037.           5846.           2037.           0.000    
    309      1     57     56       2538.          0.4458E+05       2537.           0.000    
    310      1     58     31       2664.          0.1811E+05       2664.           0.000    
    311      1     58     41       2196.           6505.           2195.           0.000    
    312      1     58     42       2049.          0.6611E+05       2048.           0.000    
    313      1     58     42       2049.          0.6611E+05       2048.           0.000    
    314      1     58     44       2024.          0.6337E+05       2021.           0.000    
    315      1     58     44       2024.          0.6337E+05       2021.           0.000    
    316      1     58     45       2027.          0.1227E+06       2026.           0.000    
    317      1     58     45       2027.          0.1227E+06       2026.           0.000    
    318      1     58     45       2027.          0.1227E+06       2026.           0.000    
    319      1     58     45       2027.          0.1227E+06       2026.           0.000    
    320      1     58     45       2027.          0.1227E+06       2026.           0.000    
    321      1     58     46       2147.          0.1049E+05       2146.           0.000    
    322      1     58     56       2546.          0.4557E+05       2545.           0.000    
    323      1     59     31       2721.           3344.           2720.           0.000    
    324      1     59     32       2605.          0.2374E+05       2604.           0.000    
    325      1     59     42       2020.          0.1190E+05       2018.           0.000    
    326      1     59     43       2015.          0.1871E+06       2013.           0.000    
    327      1     59     43       2015.          0.1871E+06       2013.           0.000    
    328      1     59     43       2015.          0.1871E+06       2013.           0.000    
    329      1     59     44       2024.          0.6078E+05       2022.           0.000    
    330      1     59     45       2147.           3865.           2146.           0.000    
    331      1     59     56       2591.          0.2829E+05       2590.           0.000    
    332      1     59     57       2581.          0.1580E+05       2579.           0.000    
    333      1     60     32       2564.          0.2492E+05       2563.           0.000    
    334      1     60     42       2010.           2378.           2008.           0.000    
    335      1     60     43       2012.          0.1643E+06       2010.           0.000    
    336      1     60     57       2507.          0.4261E+05       2505.           0.000    
    337      1     61     32       2545.          0.2332E+05       2544.           0.000    
    338      1     61     42       2005.          0.1430E+06       2003.           0.000    
    339      1     61     57       2509.          0.4064E+05       2508.           0.000    
    340      1     62     32       2564.           6304.           2563.           0.000    
    341      1     62     33       2460.          0.2103E+05       2459.           0.000    
    342      1     62     41       2002.          0.1823E+05       1999.           0.000    
    343      1     62     42       2066.          0.1220E+06       2063.           0.000    
    344      1     62     57       2506.          0.4015E+05       2504.           0.000    
    345      1     63     33       2444.          0.2262E+05       2443.           0.000    
    346      1     63     41       2006.          0.1418E+06       2003.           0.000    
    347      1     63     57       2534.          0.4360E+05       2533.           0.000    
    348      1     64     33       2418.          0.2384E+05       2417.           0.000    
    349      1     65     33       2334.          0.2232E+05       2333.           0.000    
    350      1     64     41       2034.          0.1196E+06       2031.           0.000    
    351      1     64     57       2493.          0.4528E+05       2492.           0.000    
    352      1     65     33       2334.          0.2232E+05       2333.           0.000    
    353      1     65     34       2372.           2768.           2371.           0.000    
    354      1     65     41       2109.          0.1135E+06       2107.           0.000    
    355      1     65     56       2535.          0.2036E+05       2534.           0.000    
    356      1     65     57       2546.          0.2858E+05       2544.           0.000    
    357      1     66     28       2351.           9972.           2350.           0.000    
    358      1     66     29       2360.           1713.           2360.           0.000    
    359      1     66     34       2240.          0.3166E+05       2239.           0.000    
    360      1     66     35       2278.           4242.           2278.           0.000    
    361      1     66     40       2000.          0.1028E+06       1998.           0.000    
    362      1     66     41       2182.          0.1769E+05       2180.           0.000    
    363      1     66     55       2434.           9322.           2433.           0.000    
    364      1     66     56       2429.          0.5816E+05       2428.           0.000    
    365      1     67     28       2289.          0.2240E+05       2288.           0.000    
    366      1     67     29       2309.           910.1           2308.           0.000    
    367      1     67     35       2202.          0.2653E+05       2201.           0.000    
    368      1     67     36       2184.           3989.           2183.           0.000    
    369      1     67     40       2000.          0.1121E+06       1997.           0.000    
    370      1     67     53       2372.           6586.           2371.           0.000    
    371      1     67     54       2367.          0.4730E+05       2366.           0.000    
    372      1     67     55       2405.          0.4364E+05       2403.           0.000    
    373      1     68     28       2258.          0.2559E+05       2258.           0.000    
    374      1     68     36       2119.          0.2565E+05       2118.           0.000    
    375      1     68     40       2002.          0.1121E+06       1999.           0.000    
    376      1     68     51       2323.          0.3803E+05       2321.           0.000    
    377      1     68     52       2358.          0.5000E+05       2357.           0.000    
    378      1     68     53       2367.          0.4420E+05       2365.           0.000    
    379      1     69     28       2350.           4218.           2350.           0.000    
    380      1     69     29       2245.          0.2303E+05       2244.           0.000    
    381      1     69     36       2124.          0.2237E+05       2123.           0.000    
    382      1     69     39       2225.           7135.           2223.           0.000    
    383      1     69     40       2000.          0.1477E+06       1998.           0.000    
    384      1     69     47       2307.          0.1288E+05       2305.           0.000    
    385      1     69     48       2274.          0.4775E+05       2272.           0.000    
    386      1     69     49       2279.          0.4972E+05       2278.           0.000    
    387      1     69     50       2284.          0.4656E+05       2283.           0.000    
    388      1     69     51       2325.          0.2793E+05       2324.           0.000    
    389      1     70     29       2308.          0.1775E+05       2307.           0.000    
    390      1     70     30       2236.          0.2669E+05       2235.           0.000    
    391      1     71     30       2307.           2557.           2306.           0.000    
    392      1     70     36       2109.          0.1623E+05       2108.           0.000    
    393      1     70     36       2109.          0.1623E+05       2108.           0.000    
    394      1     70     37       2122.           9273.           2121.           0.000    
    395      1     70     37       2122.           9273.           2121.           0.000    
    396      1     70     38       2105.          0.3092E+05       2102.           0.000    
    397      1     70     39       2009.          0.1445E+06       2006.           0.000    
    398      1     70     46       2255.           6518.           2253.           0.000    
    399      1     70     47       2246.          0.5588E+05       2244.           0.000    
    400      1     71     30       2307.           2557.           2306.           0.000    
    401      1     71     31       2222.          0.2551E+05       2221.           0.000    
    402      1     71     32       2225.          0.1262E+05       2224.           0.000    
    403      1     71     37       2029.          0.2363E+05       2028.           0.000    
    404      1     71     38       2007.          0.1649E+06       2004.           0.000    
    405      1     71     45       2218.          0.1169E+05       2217.           0.000    
    406      1     71     46       2236.          0.5457E+05       2234.           0.000    
    407      1     72     30       2205.           7645.           2205.           0.000    
    408      1     72     31       2203.           8640.           2202.           0.000    
    409      1     72     31       2203.           8640.           2202.           0.000    
    410      1     72     32       2157.          0.2813E+05       2156.           0.000    
    411      1     72     32       2157.          0.2813E+05       2156.           0.000    
    412      1     72     32       2157.          0.2813E+05       2156.           0.000    
    413      1     72     37       2005.          0.1448E+06       2003.           0.000    
    414      1     72     37       2005.          0.1448E+06       2003.           0.000    
    415      1     72     37       2005.          0.1448E+06       2003.           0.000    
    416      1     72     38       2036.          0.5945E+05       2034.           0.000    
    417      1     72     44       2207.          0.2560E+05       2206.           0.000    
    418      1     72     45       2233.          0.4939E+05       2232.           0.000    
    419      1     73     31       2270.           4601.           2270.           0.000    
    420      1     73     32       2119.          0.4107E+05       2118.           0.000    
    421      1     73     36       2023.          0.9324E+05       2020.           0.000    
    422      1     73     37       2024.          0.1343E+06       2021.           0.000    
    423      1     73     44       2172.          0.4815E+05       2170.           0.000    
    424      1     74     32       2235.           6733.           2234.           0.000    
    425      1     74     33       2106.          0.3464E+05       2105.           0.000    
    426      1     74     34       2109.          0.3429E+05       2108.           0.000    
    427      1     74     35       2074.          0.3276E+05       2073.           0.000    
    428      1     74     36       1999.          0.1805E+06       1997.           0.000    
    429      1     74     36       1999.          0.1805E+06       1997.           0.000    
    430      1     74     36       1999.          0.1805E+06       1997.           0.000    
    431      1     74     44       2165.          0.5275E+05       2164.           0.000    
    432      1     75     36       2088.          0.1349E+06       2085.           0.000    
    433      1     75     37       2042.          0.2806E+05       2039.           0.000    
    434      1     75     44       2162.          0.4923E+05       2161.           0.000    
    435      1     75     44       2162.          0.4923E+05       2161.           0.000    
    436      1     75     45       2169.           4342.           2168.           0.000    
    437      1     75     45       2169.           4342.           2168.           0.000    
    438      1     76     37       2029.          0.1474E+06       2026.           0.000    
    439      1     76     45       2133.          0.5653E+05       2131.           0.000    
    440      1     77     37       1985.          0.1668E+06       1983.           0.000    
    441      1     77     45       2127.          0.4756E+05       2125.           0.000    
    442      1     77     46       2119.          0.2805E+05       2118.           0.000    
    443      1     77     46       2119.          0.2805E+05       2118.           0.000    
    444      1     78     37       1987.          0.1423E+06       1984.           0.000    
    445      1     78     46       2099.          0.4450E+05       2098.           0.000    
    446      1     78     46       2099.          0.4450E+05       2098.           0.000    
    447      1     78     46       2099.          0.4450E+05       2098.           0.000    
    448      1     79     33       2057.          0.1654E+05       2057.           0.000    
    449      1     80     34       2187.           2312.           2186.           0.000    
    450      1     79     34       2088.          0.1239E+05       2088.           0.000    
    451      1     79     37       1985.          0.1870E+06       1982.           0.000    
    452      1     79     46       2097.          0.4103E+05       2096.           0.000    
    453      1     79     47       2085.          0.2712E+05       2083.           0.000    
    454      1     80     47       2065.          0.5445E+05       2063.           0.000    
    455      1     80     34       2187.           2312.           2186.           0.000    
    456      1     80     34       2187.           2312.           2186.           0.000    
    457      1     80     35       2073.          0.1820E+05       2073.           0.000    
    458      1     80     36       2068.           6826.           2067.           0.000    
    459      1     80     37       2033.          0.2251E+05       2030.           0.000    
    460      1     80     38       1977.          0.1367E+06       1975.           0.000    
    461      1     80     47       2065.          0.5445E+05       2063.           0.000    
    462      1     80     47       2065.          0.5445E+05       2063.           0.000    
    463      1     81     36       2029.          0.1617E+05       2029.           0.000    
    464      1     81     38       1951.          0.1605E+06       1948.           0.000    
    465      1     81     47       2057.          0.5156E+05       2056.           0.000    
    466      1     82     35       1997.          0.1517E+05       1997.           0.000    
    467      1     82     36       2010.           840.1           2009.           0.000    
    468      1     82     37       1962.          0.8672E+05       1960.           0.000    
    469      1     82     38       1944.          0.2459E+06       1941.           0.000    
    470      1     82     47       2048.          0.6745E+05       2047.           0.000    
    471      1     83     47       2037.          0.6535E+05       2036.           0.000    
    472      1     83     35       1967.          0.1511E+06       1965.           0.000    
    473      1     83     35       1967.          0.1511E+06       1965.           0.000    
    474      1     83     35       1967.          0.1511E+06       1965.           0.000    
    475      1     83     36       1931.          0.1441E+06       1929.           0.000    
    476      1     83     37       1960.          0.6514E+05       1958.           0.000    
    477      1     83     47       2037.          0.6535E+05       2036.           0.000    
    478      1     84     35       1931.          0.1405E+06       1928.           0.000    
    479      1     84     47       2038.          0.5999E+05       2037.           0.000    
    480      1     85     35       1922.          0.1410E+06       1919.           0.000    
    481      1     85     36       1988.           2742.           1985.           0.000    
    482      1     85     46       2040.          0.3087E+05       2038.           0.000    
    483      1     85     46       2040.          0.3087E+05       2038.           0.000    
    484      1     85     47       2041.          0.2521E+05       2039.           0.000    
    485      1     85     47       2041.          0.2521E+05       2039.           0.000    
    486      1     86     35       1911.          0.1477E+06       1909.           0.000    
    487      1     86     36       1997.          0.1437E+05       1994.           0.000    
    488      1     86     46       2015.          0.6564E+05       2013.           0.000    
    489      1     87     34       1925.          0.9938E+05       1922.           0.000    
    490      1     87     35       1911.          0.9916E+05       1909.           0.000    
    491      1     87     45       2033.          0.1218E+05       2032.           0.000    
    492      1     87     46       2011.          0.4548E+05       2010.           0.000    
    493      1     87     49       2011.          0.2214E+05       2011.           0.000    
    494      1     88     33       1934.          0.3105E+05       1931.           0.000    
    495      1     88     34       1901.          0.1704E+06       1899.           0.000    
    496      1     88     45       1993.          0.6778E+05       1992.           0.000    
    497      1     88     47       2025.           2728.           2024.           0.000    
    498      1     89     47       1999.          0.2959E+05       1999.           0.000    
    499      1     88     48       2005.          0.2357E+05       2004.           0.000    
    500      1     88     49       2014.           9338.           2013.           0.000    
    501      1     89     33       1921.          0.2717E+05       1919.           0.000    
    502      1     89     34       1895.          0.1219E+06       1892.           0.000    
    503      1     89     42       1988.           1934.           1987.           0.000    
    504      1     89     44       1991.          0.3956E+05       1990.           0.000    
    505      1     89     45       1999.          0.4308E+05       1997.           0.000    
    506      1     89     46       2016.           6212.           2015.           0.000    
    507      1     89     47       1999.          0.2959E+05       1999.           0.000    
    508      1     90     33       1892.          0.1662E+06       1890.           0.000    
    509      1     90     33       1892.          0.1662E+06       1890.           0.000    
    510      1     90     33       1892.          0.1662E+06       1890.           0.000    
    511      1     90     34       1898.           4569.           1895.           0.000    
    512      1     90     38       1967.          0.1234E+05       1966.           0.000    
    513      1     90     39       1937.          0.6440E+05       1936.           0.000    
    514      1     90     40       1939.          0.9296E+05       1938.           0.000    
    515      1     90     41       1954.          0.8142E+05       1952.           0.000    
    516      1     90     41       1954.          0.8142E+05       1952.           0.000    
    517      1     90     41       1954.          0.8142E+05       1952.           0.000    
    518      1     90     42       1965.           5134.           1964.           0.000    
    519      1     90     43       1965.          0.6429E+05       1964.           0.000    
    520      1     90     43       1965.          0.6429E+05       1964.           0.000    
    521      1     90     43       1965.          0.6429E+05       1964.           0.000    
    522      1     90     44       1973.          0.4427E+05       1972.           0.000    
    523      1     90     44       1973.          0.4427E+05       1972.           0.000    
    524      1     90     45       1990.          0.2003E+05       1989.           0.000    
    525      1     90     46       1994.          0.1842E+05       1993.           0.000    
    526      1     91     33       1883.          0.1462E+06       1881.           0.000    
    527      1     91     37       1953.          0.2922E+05       1951.           0.000    
    528      1     91     38       1924.          0.7984E+05       1922.           0.000    
    529      1     91     41       1996.           1840.           1995.           0.000    
    530      1     91     42       1970.          0.5742E+05       1968.           0.000    
    531      1     91     43       1997.          0.2943E+05       1996.           0.000    
    532      1     91     43       1997.          0.2943E+05       1996.           0.000    
    533      1     91     44       1968.          0.1492E+05       1967.           0.000    
    534      1     92     33       1875.          0.1542E+06       1873.           0.000    
    535      1     92     37       1917.          0.7633E+05       1916.           0.000    
    536      1     93     33       1897.          0.7260E+05       1894.           0.000    
    537      1     93     34       1875.          0.1152E+06       1872.           0.000    
    538      1     93     36       1922.          0.6379E+05       1921.           0.000    
    539      1     93     37       1943.          0.1297E+05       1941.           0.000    
    540      1     94     34       1866.          0.1497E+06       1863.           0.000    
    541      1     94     36       1902.          0.6747E+05       1901.           0.000    
    542      1     95     34       1860.          0.1424E+06       1857.           0.000    
    543      1     95     36       1886.          0.8085E+05       1884.           0.000    
    544      1     96     34       1865.          0.1440E+06       1863.           0.000    
    545      1     96     35       1882.          0.6905E+05       1881.           0.000    
    546      1     96     36       1952.          0.1132E+05       1951.           0.000    
    547      1     97     34       1853.          0.1841E+06       1851.           0.000    
    548      1     98     34       1851.          0.2544E+06       1849.           0.000    
    549      1     97     35       1873.          0.7958E+05       1871.           0.000    
    550      1     98     33       1882.          0.5832E+05       1879.           0.000    
    551      1     98     34       1851.          0.2544E+06       1849.           0.000    
    552      1     98     34       1851.          0.2544E+06       1849.           0.000    
    553      1     98     34       1851.          0.2544E+06       1849.           0.000    
    554      1     98     35       1944.          0.1544E+05       1942.           0.000    
    555      1     99     34       1881.          0.1604E+06       1879.           0.000    
    556      1     99     34       1881.          0.1604E+06       1879.           0.000    
    557      1     99     34       1881.          0.1604E+06       1879.           0.000    
    558      1    100     34       1928.          0.1773E+06       1925.           0.000    
    559      1    101     30       1983.          0.1704E+05       1982.           0.000    
    560      1    101     33       1873.          0.1070E+06       1870.           0.000    
    561      1    101     34       1969.          0.7819E+05       1966.           0.000    
    562      1    101     34       1969.          0.7819E+05       1966.           0.000    
    563      1    102     29       1946.          0.1095E+05       1945.           0.000    
    564      1    102     29       1946.          0.1095E+05       1945.           0.000    
    565      1    102     29       1946.          0.1095E+05       1945.           0.000    
    566      1    102     30       1966.           6574.           1965.           0.000    
    567      1    102     30       1966.           6574.           1965.           0.000    
    568      1    102     30       1966.           6574.           1965.           0.000    
    569      1    102     33       1888.          0.7502E+05       1885.           0.000    
    570      1    102     34       1970.          0.8736E+05       1966.           0.000    
    571      1    102     34       1970.          0.8736E+05       1966.           0.000    
    572      1    103     29       1915.          0.1518E+05       1914.           0.000    
    573      1    103     29       1915.          0.1518E+05       1914.           0.000    
    574      1    103     30       1937.           1053.           1936.           0.000    
    575      1    103     33       1910.           9228.           1907.           0.000    
    576      1    103     34       1902.          0.1634E+06       1899.           0.000    
    577      1    103     34       1902.          0.1634E+06       1899.           0.000    
    578      1    103     36       1945.          0.1289E+05       1944.           0.000    
    579      1    104     29       1948.           5650.           1947.           0.000    
    580      1    104     30       1926.          0.1102E+05       1925.           0.000    
    581      1    104     34       1860.          0.1340E+06       1858.           0.000    
    582      1    104     34       1860.          0.1340E+06       1858.           0.000    
    583      1    104     35       1910.          0.1607E+05       1909.           0.000    
    584      1    104     36       1976.           1740.           1975.           0.000    
    585      1    105     30       1912.          0.1732E+05       1911.           0.000    
    586      1    105     34       1870.          0.1701E+06       1867.           0.000    
    587      1    105     34       1870.          0.1701E+06       1867.           0.000    
    588      1    105     34       1870.          0.1701E+06       1867.           0.000    
    589      1    106     28       1887.           9647.           1886.           0.000    
    590      1    107     28       1879.           7426.           1878.           0.000    
    591      1    106     30       1882.          0.1739E+05       1882.           0.000    
    592      1    106     33       1822.          0.1803E+06       1819.           0.000    
    593      1    106     34       1905.          0.3523E+05       1902.           0.000    
    594      1    107     28       1879.           7426.           1878.           0.000    
    595      1    107     29       1853.          0.1266E+05       1852.           0.000    
    596      1    107     30       1871.          0.1707E+05       1871.           0.000    
    597      1    107     33       1812.          0.1943E+06       1809.           0.000    
    598      1    108     29       1845.           3776.           1844.           0.000    
    599      1    108     30       1859.          0.2298E+05       1859.           0.000    
    600      1    108     30       1859.          0.2298E+05       1859.           0.000    
    601      1    108     30       1859.          0.2298E+05       1859.           0.000    
    602      1    108     32       1817.          0.1961E+06       1814.           0.000    
    603      1    108     33       1846.          0.1854E+06       1843.           0.000    
    604      1    109     29       1841.           763.8           1841.           0.000    
    605      1    109     30       1838.          0.2620E+05       1838.           0.000    
    606      1    109     30       1838.          0.2620E+05       1838.           0.000    
    607      1    109     32       1803.          0.2080E+06       1800.           0.000    
    608      1    110     30       1821.          0.2945E+05       1820.           0.000    
    609      1    110     32       1799.          0.1763E+06       1796.           0.000    
    610      1    110     34       1935.           3367.           1934.           0.000    
    611      1    110     34       1935.           3367.           1934.           0.000    
    612      1    110     34       1935.           3367.           1934.           0.000    
    613      1    110     35       1920.          0.1461E+05       1919.           0.000    
    614      1    110     36       1930.           7177.           1930.           0.000    
    615      1    111     29       1825.          0.1216E+06       1822.           0.000    
    616      1    111     30       1794.          0.2197E+06       1792.           0.000    
    617      1    111     30       1794.          0.2197E+06       1792.           0.000    
    618      1    111     30       1794.          0.2197E+06       1792.           0.000    
    619      1    111     31       1792.          0.4538E+05       1789.           0.000    
    620      1    111     32       1801.          0.1763E+06       1798.           0.000    
    621      1    111     33       1837.          0.1853E+05       1836.           0.000    
    622      1    111     34       1878.          0.1225E+05       1877.           0.000    
    623      1    111     34       1878.          0.1225E+05       1877.           0.000    
    624      1    111     34       1878.          0.1225E+05       1877.           0.000    
    625      1    112     29       1780.          0.1847E+06       1777.           0.000    
    626      1    112     31       1804.          0.1486E+06       1802.           0.000    
    627      1    112     31       1804.          0.1486E+06       1802.           0.000    
    628      1    112     31       1804.          0.1486E+06       1802.           0.000    
    629      1    112     32       1821.          0.1569E+06       1819.           0.000    
    630      1    112     32       1821.          0.1569E+06       1819.           0.000    
    631      1    112     33       1833.           424.3           1833.           0.000    
    632      1    113     25       1792.           8964.           1792.           0.000    
    633      1    113     28       1776.          0.4911E+05       1773.           0.000    
    634      1    113     29       1776.          0.1532E+06       1773.           0.000    
    635      1    114     25       1792.           6311.           1791.           0.000    
    636      1    114     25       1792.           6311.           1791.           0.000    
    637      1    114     26       1788.           6689.           1787.           0.000    
    638      1    114     26       1788.           6689.           1787.           0.000    
    639      1    114     27       1779.          0.9916E+05       1776.           0.000    
    640      1    114     28       1764.          0.2835E+06       1761.           0.000    
    641      1    114     28       1764.          0.2835E+06       1761.           0.000    
    642      1    115     25       1775.           1920.           1774.           0.000    
    643      1    115     26       1755.          0.2092E+06       1752.           0.000    
    644      1    115     26       1755.          0.2092E+06       1752.           0.000    
    645      1    115     26       1755.          0.2092E+06       1752.           0.000    
    646      1    115     26       1755.          0.2092E+06       1752.           0.000    
    647      1    115     27       1763.          0.1239E+06       1759.           0.000    
    648      1    115     28       1797.          0.5310E+05       1794.           0.000    
    649      1    116     24       1772.          0.7607E+05       1769.           0.000    
    650      1    116     25       1751.          0.1982E+06       1747.           0.000    
    651      1    116     26       1758.          0.4322E+05       1754.           0.000    
    652      1    117     23       1750.          0.4104E+05       1747.           0.000    
    653      1    117     24       1743.          0.1961E+06       1741.           0.000    
    654      1    117     24       1743.          0.1961E+06       1741.           0.000    
    655      1    117     24       1743.          0.1961E+06       1741.           0.000    
    656      1    117     25       1752.          0.1020E+05       1751.           0.000    
    657      1    118     22       1763.          0.4742E+05       1759.           0.000    
    658      1    118     23       1735.          0.2250E+06       1731.           0.000    
    659      1    118     25       1774.           5346.           1774.           0.000    
    660      1    118     26       1796.          0.1463E+05       1795.           0.000    
    661      1    118     27       1815.          0.1297E+05       1814.           0.000    
    662      1    118     28       1826.          0.1283E+05       1826.           0.000    
    663      1    118     29       1838.          0.1148E+05       1838.           0.000    
    664      1    119     19       1765.           6394.           1765.           0.000    
    665      1    119     21       1766.          0.8245E+05       1763.           0.000    
    666      1    119     22       1732.          0.2333E+06       1728.           0.000    
    667      1    120     19       1751.          0.1169E+05       1750.           0.000    
    668      1    120     21       1732.          0.2022E+06       1729.           0.000    
    669      1    121     19       1733.          0.1246E+05       1733.           0.000    
    670      1    121     20       1725.          0.1514E+06       1721.           0.000    
    671      1    121     21       1723.          0.6129E+05       1720.           0.000    
    672      1    122     18       1717.          0.2594E+05       1713.           0.000    
    673      1    122     19       1712.          0.2421E+06       1710.           0.000    
    674      1    122     19       1712.          0.2421E+06       1710.           0.000    
    675      1    122     19       1712.          0.2421E+06       1710.           0.000    
    676      1    122     20       1714.          0.1441E+06       1711.           0.000    
    677      1    123     15       1700.           9078.           1697.           0.000    
    678      1    123     16       1698.          0.4148E+05       1695.           0.000    
    679      1    123     16       1698.          0.4148E+05       1695.           0.000    
    680      1    123     17       1698.          0.2347E+06       1695.           0.000    
    681      1    123     18       1703.          0.2199E+06       1700.           0.000    
    682      1    124     14       1685.          0.1947E+06       1682.           0.000    
    683      1    124     15       1688.          0.2898E+06       1685.           0.000    
    684      1    124     16       1700.          0.1742E+06       1697.           0.000    
    685      1    125     11       1675.          0.1430E+06       1671.           0.000    
    686      1    125     12       1677.          0.2424E+06       1673.           0.000    
    687      1    125     13       1681.          0.1638E+06       1678.           0.000    
    688      1    125     13       1681.          0.1638E+06       1678.           0.000    
    689      1    125     13       1681.          0.1638E+06       1678.           0.000    
    690      1    125     14       1697.          0.1325E+05       1694.           0.000    
    691      1    126      9       1668.          0.1792E+06       1665.           0.000    
    692      1    126     10       1669.          0.1995E+06       1666.           0.000    
    693      1    126     11       1684.          0.6907E+05       1681.           0.000    
    694      1    127      7       1663.          0.8546E+05       1659.           0.000    
    695      1    127      8       1657.          0.2300E+06       1653.           0.000    
    696      1    127      9       1675.          0.8158E+05       1672.           0.000    
    697      1    128      6       1655.          0.1295E+06       1652.           0.000    
    698      1    128      7       1662.          0.1904E+06       1658.           0.000    
    699      1    129      4       1641.          0.5123E+05       1638.           0.000    
    700      1    129      5       1649.          0.2216E+06       1646.           0.000    
    701      1    129      6       1679.          0.9375E+05       1675.           0.000    
    702      1    130      2       1628.          0.1357E+06       1625.           0.000    
    703      1    130      3       1629.          0.2065E+06       1626.           0.000    
    704      1    130      4       1644.          0.2083E+06       1641.           0.000    
    705      1    131      1       1620.          0.1656E+06       1616.           0.000    
    706      1    131      2       1626.          0.1123E+06       1623.           0.000    

    706 RIVER REACHES



                           RECHARGE
 READING ON UNIT 5024 WITH FORMAT: (FREE)              

            1           2           3           4           5           6           7           8           9          10
           11          12          13          14          15          16          17          18          19          20
           21          22          23          24          25          26          27          28          29          30
           31          32          33          34          35          36          37          38          39          40
           41          42          43          44          45          46          47          48          49          50
           51          52          53          54          55          56          57          58          59          60
           61          62          63          64          65          66          67          68          69          70
           71          72          73          74          75          76
 ........................................................................................................................
   1    0.000       0.000       0.000       0.000       0.000       0.000       0.000       0.000       0.000       0.000    
        0.000       0.000       0.000       0.000       0.000       0.000       0.000       0.000       0.000       0.000    
        0.000       0.000       0.000       0.000       0.000       0.000       0.000       0.000       0.000       0.000    
        0.000       0.000       0.000       0.000       0.000       0.000       0.000       0.000       0.000       0.000    
        0.000       0.000       0.000       0.000       0.000       0.000       0.000       0.000       0.000       0.000    
        0.000       0.000       0.000       0.000       0.000       0.000       0.000       0.000       0.000       0.000    
        0.000       0.000       0.000       0.000       0.000       0.000       0.000       0.000       0.000       0.000    
       1.0000E-05  1.0000E-05  1.0000E-05  1.0000E-05   0.000       0.000    
   2    0.000       0.000       0.000       0.000       0.000       0.000       0.000       0.000       0.000       0.000    
        0.000       0.000       0.000       0.000       0.000       0.000       0.000       0.000       0.000       0.000    
        0.000       0.000       0.000       0.000       0.000       0.000       0.000       0.000       0.000       0.000    
        0.000       0.000       0.000       0.000       0.000       0.000       0.000       0.000       0.000       0.000    
        0.000       0.000       0.000       0.000       0.000       0.000       0.000       0.000       0.000       0.000    
        0.000       0.000       0.000       0.000       0.000       0.000       0.000       0.000       0.000       0.000    
        0.000       0.000       0.000       0.000       0.000       0.000       0.000       0.000       0.000      1.0000E-05
       1.0000E-05  1.0000E-05  1.0000E-05  1.0000E-05  1.0000E-05  1.0000E-05
   3    0.000       0.000       0.000       0.000       0.000       0.000       0.000       0.000       0.000       0.000    
        0.000       0.000       0.000       0.000       0.000       0.000       0.000       0.000       0.000       0.000    
        0.000       0.000       0.000       0.000       0.000       0.000       0.000       0.000       0.000       0.000    
        0.000       0.000       0.000       0.000       0.000       0.000       0.000       0.000       0.000       0.000    
        0.000       0.000       0.000       0.000       0.000       0.000       0.000       0.000       0.000       0.000    
        0.000       0.000       0.000       0.000       0.000       0.000       0.000       0.000       0.000       0.000    
        0.000       0.000       0.000       0.000       0.000       0.000       0.000       0.000      1.0000E-05  1.0000E-05
       1.0000E-05  1.0000E-05  1.0000E-05  1.0000E-05  1.0000E-05  1.0000E-05
   4    0.000       0.000       0.000       0.000       0.000       0.000       0.000       0.000       0.000       0.000    
        0.000       0.000       0.000       0.000       0.000       0.000       0.000       0.000       0.000       0.000    
        0.000       0.000       0.000       0.000       0.000       0.000       0.000       0.000       0.000       0.000    
        0.000       0.000       0.000       0.000       0.000       0.000       0.000       0.000       0.000       0.000    
        0.000       0.000       0.000       0.000       0.000       0.000       0.000       0.000       0.000       0.000    
        0.000       0.000       0.000       0.000       0.000       0.000       0.000       0.000       0.000       0.000    
        0.000       0.000       0.000       0.000       0.000      1.0000E-05  1.0000E-05  1.0000E-05  1.0000E-05  1.0000E-05
       1.0000E-05  1.0000E-05  1.0000E-05  1.0000E-05  1.0000E-05  1.0000E-05
   5    0.000       0.000       0.000       0.000       0.000       0.000       0.000       0.000       0.000       0.000    
        0.000       0.000       0.000       0.000       0.000       0.000       0.000       0.000       0.000       0.000    
        0.000       0.000       0.000       0.000       0.000       0.000       0.000       0.000       0.000       0.000    
        0.000       0.000       0.000       0.000       0.000       0.000       0.000       0.000       0.000       0.000    
        0.000       0.000       0.000       0.000       0.000       0.000       0.000       0.000       0.000       0.000    
        0.000       0.000       0.000       0.000       0.000       0.000      1.0000E-05  1.0000E-05   0.000       0.000    
        0.000       0.000       0.000      1.0000E-05  1.0000E-05  1.0000E-05  1.0000E-05  1.0000E-05  1.0000E-05  1.0000E-05
       1.0000E-05  1.0000E-05  1.0000E-05  1.0000E-05  1.0000E-05   0.000    
   6    0.000       0.000       0.000       0.000       0.000       0.000       0.000       0.000       0.000       0.000    
        0.000       0.000       0.000       0.000       0.000       0.000       0.000       0.000       0.000       0.000    
        0.000       0.000       0.000       0.000       0.000       0.000       0.000       0.000       0.000       0.000    
        0.000       0.000       0.000       0.000       0.000       0.000       0.000       0.000       0.000       0.000    
        0.000       0.000       0.000       0.000       0.000       0.000       0.000       0.000       0.000       0.000    
        0.000       0.000       0.000       0.000       0.000      1.0000E-05  1.0000E-05  1.0000E-05  1.0000E-05  1.0000E-05
       1.0000E-05  1.0000E-05  1.0000E-05  1.0000E-05  1.0000E-05  1.0000E-05  1.0000E-05  1.0000E-05  1.0000E-05  1.0000E-05
       1.0000E-05  1.0000E-05  1.0000E-05  1.0000E-05  1.0000E-05  1.0000E-05
   7    0.000       0.000       0.000       0.000       0.000       0.000       0.000       0.000       0.000       0.000    
        0.000       0.000       0.000       0.000       0.000       0.000       0.000       0.000       0.000       0.000    
        0.000       0.000       0.000       0.000       0.000       0.000       0.000       0.000       0.000       0.000    
        0.000       0.000       0.000       0.000       0.000       0.000       0.000       0.000       0.000       0.000    
        0.000       0.000       0.000       0.000       0.000       0.000       0.000       0.000       0.000       0.000    
        0.000       0.000       0.000       0.000      1.0000E-05  1.0000E-05  1.0000E-05  1.0000E-05  1.0000E-05  1.0000E-05
       1.0000E-05  1.0000E-05  1.0000E-05  1.0000E-05  1.0000E-05  1.0000E-05  1.0000E-05  1.0000E-05  1.0000E-05  1.0000E-05
       1.0000E-05  1.0000E-05  1.0000E-05  1.0000E-05  1.0000E-05  1.0000E-05
   8    0.000       0.000       0.000       0.000       0.000       0.000       0.000       0.000       0.000       0.000    
        0.000       0.000       0.000       0.000       0.000       0.000       0.000       0.000       0.000       0.000    
        0.000       0.000       0.000       0.000       0.000       0.000       0.000       0.000       0.000       0.000    
        0.000       0.000       0.000       0.000       0.000       0.000       0.000       0.000       0.000       0.000    
        0.000       0.000       0.000       0.000       0.000       0.000       0.000       0.000       0.000       0.000    
        0.000       0.000       0.000      1.0000E-05  1.0000E-05  1.0000E-05  1.0000E-05  1.0000E-05  1.0000E-05  1.0000E-05
       1.0000E-05  1.0000E-05  1.0000E-05  1.0000E-05  1.0000E-05  1.0000E-05  1.0000E-05  1.0000E-05  1.0000E-05  1.0000E-05
       1.0000E-05  1.0000E-05  1.0000E-05  1.0000E-05  1.0000E-05  1.0000E-05
   9    0.000       0.000       0.000       0.000       0.000       0.000       0.000       0.000       0.000       0.000    
        0.000       0.000       0.000       0.000       0.000       0.000       0.000       0.000       0.000       0.000    
        0.000       0.000       0.000       0.000       0.000       0.000       0.000       0.000       0.000       0.000    
        0.000       0.000       0.000       0.000       0.000       0.000       0.000       0.000       0.000       0.000    
        0.000       0.000       0.000       0.000       0.000       0.000       0.000       0.000       0.000       0.000    
        0.000       0.000      1.0000E-05  1.0000E-05  1.0000E-05  1.0000E-05  1.0000E-05  1.0000E-05  1.0000E-05  1.0000E-05
       1.0000E-05  1.0000E-05  1.0000E-05  1.0000E-05  1.0000E-05  1.0000E-05  1.0000E-05  1.0000E-05  1.0000E-05  1.0000E-05
       1.0000E-05  1.0000E-05  1.0000E-05  1.0000E-05  1.0000E-05  1.0000E-05
  10    0.000       0.000       0.000       0.000       0.000       0.000       0.000       0.000       0.000       0.000    
        0.000       0.000       0.000       0.000       0.000       0.000       0.000       0.000       0.000       0.000    
        0.000       0.000       0.000       0.000       0.000       0.000       0.000       0.000       0.000       0.000    
        0.000       0.000       0.000       0.000       0.000       0.000       0.000       0.000       0.000       0.000    
        0.000       0.000       0.000       0.000       0.000       0.000       0.000       0.000       0.000       0.000    
        0.000       0.000      1.0000E-05  1.0000E-05  1.0000E-05  1.0000E-05  1.0000E-05  1.0000E-05  1.0000E-05  1.0000E-05
       1.0000E-05  1.0000E-05  1.0000E-05  1.0000E-05  1.0000E-05  1.0000E-05  1.0000E-05  1.0000E-05  1.0000E-05  1.0000E-05
       1.0000E-05  1.0000E-05  1.0000E-05  1.0000E-05  1.0000E-05   0.000    
  11    0.000       0.000       0.000       0.000       0.000       0.000       0.000       0.000       0.000       0.000    
        0.000       0.000       0.000       0.000       0.000       0.000       0.000       0.000       0.000       0.000    
        0.000       0.000       0.000       0.000       0.000       0.000       0.000       0.000       0.000       0.000    
        0.000       0.000       0.000       0.000       0.000       0.000       0.000       0.000       0.000       0.000    
        0.000       0.000       0.000       0.000       0.000       0.000       0.000       0.000       0.000       0.000    
        0.000       0.000      1.0000E-05  1.0000E-05  1.0000E-05  1.0000E-05  1.0000E-05  1.0000E-05  1.0000E-05  1.0000E-05
       1.0000E-05  1.0000E-05  1.0000E-05  1.0000E-05  1.0000E-05  1.0000E-05  1.0000E-05  1.0000E-05  1.0000E-05  1.0000E-05
       1.0000E-05  1.0000E-05  1.0000E-05  1.0000E-05  1.0000E-05  1.0000E-05
  12    0.000       0.000       0.000       0.000       0.000       0.000       0.000       0.000       0.000       0.000    
        0.000       0.000       0.000       0.000       0.000       0.000       0.000       0.000       0.000       0.000    
        0.000       0.000       0.000       0.000       0.000       0.000       0.000       0.000       0.000       0.000    
        0.000       0.000       0.000       0.000       0.000       0.000       0.000       0.000       0.000       0.000    
        0.000       0.000       0.000       0.000       0.000       0.000       0.000       0.000       0.000       0.000    
        0.000      1.0000E-05  1.0000E-05  1.0000E-05  1.0000E-05  1.0000E-05  1.0000E-05  1.0000E-05  1.0000E-05  1.0000E-05
       1.0000E-05  1.0000E-05  1.0000E-05  1.0000E-05  1.0000E-05  1.0000E-05  1.0000E-05  1.0000E-05  1.0000E-05  1.0000E-05
       1.0000E-05  1.0000E-05  1.0000E-05  1.0000E-05  1.0000E-05  1.0000E-05
  13    0.000       0.000       0.000       0.000       0.000       0.000       0.000       0.000       0.000       0.000    
        0.000       0.000       0.000       0.000       0.000       0.000       0.000       0.000       0.000       0.000    
        0.000       0.000       0.000       0.000       0.000       0.000       0.000       0.000       0.000       0.000    
        0.000       0.000       0.000       0.000       0.000       0.000       0.000       0.000       0.000       0.000    
        0.000       0.000       0.000       0.000       0.000       0.000       0.000       0.000       0.000      1.0000E-05
       1.0000E-05  1.0000E-05  1.0000E-05  1.0000E-05  1.0000E-05  1.0000E-05  1.0000E-05  1.0000E-05  1.0000E-05  1.0000E-05
       1.0000E-05  1.0000E-05  1.0000E-05  1.0000E-05  1.0000E-05  1.0000E-05  1.0000E-05  1.0000E-05  1.0000E-05  1.0000E-05
       1.0000E-05  1.0000E-05  1.0000E-05  1.0000E-05  1.0000E-05  1.0000E-05
  14    0.000       0.000       0.000       0.000       0.000       0.000       0.000       0.000       0.000       0.000    
        0.000       0.000       0.000       0.000       0.000       0.000       0.000       0.000       0.000       0.000    
        0.000       0.000       0.000       0.000       0.000       0.000       0.000       0.000       0.000       0.000    
        0.000       0.000       0.000       0.000       0.000       0.000       0.000       0.000       0.000       0.000    
        0.000       0.000       0.000       0.000       0.000       0.000       0.000      1.0000E-05  1.0000E-05  1.0000E-05
       1.0000E-05  1.0000E-05  1.0000E-05  1.0000E-05  1.0000E-05  1.0000E-05  1.0000E-05  1.0000E-05  1.0000E-05  1.0000E-05
       1.0000E-05  1.0000E-05  1.0000E-05  1.0000E-05  1.0000E-05  1.0000E-05  1.0000E-05  1.0000E-05  1.0000E-05  1.0000E-05
       1.0000E-05  1.0000E-05  1.0000E-05  1.0000E-05  1.0000E-05  1.0000E-05
  15    0.000       0.000       0.000       0.000       0.000       0.000       0.000       0.000       0.000       0.000    
        0.000       0.000       0.000       0.000       0.000       0.000       0.000       0.000       0.000       0.000    
        0.000       0.000       0.000       0.000       0.000       0.000       0.000       0.000       0.000       0.000    
        0.000       0.000       0.000       0.000       0.000       0.000       0.000       0.000       0.000       0.000    
        0.000       0.000       0.000       0.000       0.000       0.000       0.000      1.0000E-05  1.0000E-05  1.0000E-05
       1.0000E-05  1.0000E-05  1.0000E-05  1.0000E-05  1.0000E-05  1.0000E-05  1.0000E-05  1.0000E-05  1.0000E-05  1.0000E-05
       1.0000E-05  1.0000E-05  1.0000E-05  1.0000E-05  1.0000E-05  1.0000E-05  1.0000E-05  1.0000E-05  1.0000E-05  1.0000E-05
       1.0000E-05  1.0000E-05  1.0000E-05  1.0000E-05  1.0000E-05  1.0000E-05
  16    0.000       0.000       0.000       0.000       0.000       0.000       0.000       0.000       0.000       0.000    
        0.000       0.000       0.000       0.000       0.000       0.000       0.000       0.000       0.000       0.000    
        0.000       0.000       0.000       0.000       0.000       0.000       0.000       0.000       0.000       0.000    
        0.000       0.000       0.000       0.000       0.000       0.000       0.000       0.000       0.000       0.000    
        0.000       0.000       0.000       0.000       0.000       0.000       0.000      1.0000E-05  1.0000E-05  1.0000E-05
       1.0000E-05  1.0000E-05  1.0000E-05  1.0000E-05  1.0000E-05  1.0000E-05  1.0000E-05  1.0000E-05  1.0000E-05  1.0000E-05
       1.0000E-05  1.0000E-05  1.0000E-05  1.0000E-05  1.0000E-05  1.0000E-05  1.0000E-05  1.0000E-05  1.0000E-05  1.0000E-05
       1.0000E-05  1.0000E-05  1.0000E-05  1.0000E-05  1.0000E-05  1.0000E-05
  17    0.000       0.000       0.000       0.000       0.000       0.000       0.000       0.000       0.000       0.000    
        0.000       0.000       0.000       0.000       0.000       0.000       0.000       0.000       0.000       0.000    
        0.000       0.000       0.000       0.000       0.000       0.000       0.000       0.000       0.000       0.000    
        0.000       0.000       0.000       0.000       0.000       0.000       0.000       0.000       0.000       0.000    
        0.000       0.000       0.000       0.000       0.000       0.000      1.0000E-05  1.0000E-05  1.0000E-05  1.0000E-05
       1.0000E-05  1.0000E-05  1.0000E-05  1.0000E-05  1.0000E-05  1.0000E-05  1.0000E-05  1.0000E-05  1.0000E-05  1.0000E-05
       1.0000E-05  1.0000E-05  1.0000E-05  1.0000E-05  1.0000E-05  1.0000E-05  1.0000E-05  1.0000E-05  1.0000E-05  1.0000E-05
       1.0000E-05  1.0000E-05  1.0000E-05  1.0000E-05  1.0000E-05   0.000    
  18    0.000       0.000       0.000       0.000       0.000       0.000       0.000       0.000       0.000       0.000    
        0.000       0.000       0.000       0.000       0.000       0.000       0.000       0.000       0.000       0.000    
        0.000       0.000       0.000       0.000       0.000       0.000       0.000       0.000       0.000       0.000    
        0.000       0.000       0.000       0.000       0.000       0.000       0.000       0.000       0.000       0.000    
        0.000       0.000       0.000       0.000      1.0000E-05  1.0000E-05  1.0000E-05  1.0000E-05  1.0000E-05  1.0000E-05
       1.0000E-05  1.0000E-05  1.0000E-05  1.0000E-05  1.0000E-05  1.0000E-05  1.0000E-05  1.0000E-05  1.0000E-05  1.0000E-05
       1.0000E-05  1.0000E-05  1.0000E-05  1.0000E-05  1.0000E-05  1.0000E-05  1.0000E-05  1.0000E-05  1.0000E-05  1.0000E-05
       1.0000E-05  1.0000E-05  1.0000E-05  1.0000E-05  1.0000E-05   0.000    
  19    0.000       0.000       0.000       0.000       0.000       0.000       0.000       0.000       0.000       0.000    
        0.000       0.000       0.000       0.000       0.000       0.000       0.000       0.000       0.000       0.000    
        0.000       0.000       0.000       0.000       0.000       0.000       0.000       0.000       0.000       0.000    
        0.000       0.000       0.000       0.000       0.000       0.000       0.000       0.000       0.000       0.000    
        0.000       0.000       0.000      1.0000E-05  1.0000E-05  1.0000E-05  1.0000E-05  1.0000E-05  1.0000E-05  1.0000E-05
       1.0000E-05  1.0000E-05  1.0000E-05  1.0000E-05  1.0000E-05  1.0000E-05  1.0000E-05  1.0000E-05  1.0000E-05  1.0000E-05
       1.0000E-05  1.0000E-05  1.0000E-05  1.0000E-05  1.0000E-05  1.0000E-05  1.0000E-05  1.0000E-05  1.0000E-05  1.0000E-05
       1.0000E-05  1.0000E-05  1.0000E-05  1.0000E-05   0.000       0.000    
  20    0.000       0.000       0.000       0.000       0.000       0.000       0.000       0.000       0.000       0.000    
        0.000       0.000       0.000       0.000       0.000       0.000       0.000       0.000       0.000       0.000    
        0.000       0.000       0.000       0.000       0.000       0.000       0.000       0.000       0.000       0.000    
        0.000       0.000       0.000       0.000       0.000       0.000       0.000       0.000       0.000       0.000    
        0.000       0.000       0.000      1.0000E-05  1.0000E-05  1.0000E-05  1.0000E-05  1.0000E-05  1.0000E-05  1.0000E-05
       1.0000E-05  1.0000E-05  1.0000E-05  1.0000E-05  1.0000E-05  1.0000E-05  1.0000E-05  1.0000E-05  1.0000E-05  1.0000E-05
       1.0000E-05  1.0000E-05  1.0000E-05  1.0000E-05  1.0000E-05  1.0000E-05  1.0000E-05  1.0000E-05  1.0000E-05  1.0000E-05
       1.0000E-05  1.0000E-05   0.000       0.000       0.000       0.000    
  21    0.000       0.000       0.000       0.000       0.000       0.000       0.000       0.000       0.000       0.000    
        0.000       0.000       0.000       0.000       0.000       0.000       0.000       0.000       0.000       0.000    
        0.000       0.000       0.000       0.000       0.000       0.000       0.000       0.000       0.000       0.000    
        0.000       0.000       0.000       0.000       0.000       0.000       0.000       0.000       0.000       0.000    
        0.000       0.000       0.000      1.0000E-05  1.0000E-05  1.0000E-05  1.0000E-05  1.0000E-05  1.0000E-05  1.0000E-05
       1.0000E-05  1.0000E-05  1.0000E-05  1.0000E-05  1.0000E-05  1.0000E-05  1.0000E-05  1.0000E-05  1.0000E-05  1.0000E-05
       1.0000E-05  1.0000E-05  1.0000E-05  1.0000E-05  1.0000E-05  1.0000E-05  1.0000E-05  1.0000E-05  1.0000E-05  1.0000E-05
       1.0000E-05  1.0000E-05   0.000       0.000       0.000       0.000    
  22    0.000       0.000       0.000       0.000       0.000       0.000       0.000       0.000       0.000       0.000    
        0.000       0.000       0.000       0.000       0.000       0.000       0.000       0.000       0.000       0.000    
        0.000       0.000       0.000       0.000       0.000       0.000       0.000       0.000       0.000       0.000    
        0.000       0.000       0.000       0.000       0.000       0.000       0.000       0.000       0.000       0.000    
        0.000       0.000      1.0000E-05  1.0000E-05  1.0000E-05  1.0000E-05  1.0000E-05  1.0000E-05  1.0000E-05  1.0000E-05
       1.0000E-05  1.0000E-05  1.0000E-05  1.0000E-05  1.0000E-05  1.0000E-05  1.0000E-05  1.0000E-05  1.0000E-05  1.0000E-05
       1.0000E-05  1.0000E-05  1.0000E-05  1.0000E-05  1.0000E-05  1.0000E-05  1.0000E-05  1.0000E-05  1.0000E-05  1.0000E-05
       1.0000E-05   0.000       0.000       0.000       0.000       0.000    
  23    0.000       0.000       0.000       0.000       0.000       0.000       0.000       0.000       0.000       0.000    
        0.000       0.000       0.000       0.000       0.000       0.000       0.000       0.000       0.000       0.000    
        0.000       0.000       0.000       0.000       0.000       0.000       0.000       0.000       0.000       0.000    
        0.000       0.000       0.000       0.000       0.000       0.000       0.000       0.000       0.000       0.000    
        0.000       0.000      1.0000E-05  1.0000E-05  1.0000E-05  1.0000E-05  1.0000E-05  1.0000E-05  1.0000E-05  1.0000E-05
       1.0000E-05  1.0000E-05  1.0000E-05  1.0000E-05  1.0000E-05  1.0000E-05  1.0000E-05  1.0000E-05  1.0000E-05  1.0000E-05
       1.0000E-05  1.0000E-05  1.0000E-05  1.0000E-05  1.0000E-05  1.0000E-05  1.0000E-05  1.0000E-05  1.0000E-05  1.0000E-05
       1.0000E-05   0.000       0.000       0.000       0.000       0.000    
  24    0.000       0.000       0.000       0.000       0.000       0.000       0.000       0.000       0.000       0.000    
        0.000       0.000       0.000       0.000       0.000       0.000       0.000       0.000       0.000       0.000    
        0.000       0.000       0.000       0.000       0.000       0.000       0.000       0.000       0.000       0.000    
        0.000       0.000       0.000       0.000       0.000       0.000       0.000       0.000      1.0000E-05  1.0000E-05
       1.0000E-05  1.0000E-05  1.0000E-05  1.0000E-05  1.0000E-05  1.0000E-05  1.0000E-05  1.0000E-05  1.0000E-05  1.0000E-05
       1.0000E-05  1.0000E-05  1.0000E-05  1.0000E-05  1.0000E-05  1.0000E-05  1.0000E-05  1.0000E-05  1.0000E-05  1.0000E-05
       1.0000E-05  1.0000E-05  1.0000E-05  1.0000E-05  1.0000E-05  1.0000E-05  1.0000E-05  1.0000E-05  1.0000E-05  1.0000E-05
       1.0000E-05   0.000       0.000       0.000       0.000       0.000    
  25    0.000       0.000       0.000       0.000       0.000       0.000       0.000       0.000       0.000       0.000    
        0.000       0.000       0.000       0.000       0.000       0.000       0.000       0.000       0.000       0.000    
        0.000       0.000       0.000       0.000       0.000       0.000       0.000       0.000       0.000       0.000    
        0.000       0.000       0.000       0.000      1.0000E-05  1.0000E-05  1.0000E-05  1.0000E-05  1.0000E-05  1.0000E-05
       1.0000E-05  1.0000E-05  1.0000E-05  1.0000E-05  1.0000E-05  1.0000E-05  1.0000E-05  1.0000E-05  1.0000E-05  1.0000E-05
       1.0000E-05  1.0000E-05  1.0000E-05  1.0000E-05  1.0000E-05  1.0000E-05  1.0000E-05  1.0000E-05  1.0000E-05  1.0000E-05
       1.0000E-05  1.0000E-05  1.0000E-05  1.0000E-05  1.0000E-05  1.0000E-05  1.0000E-05  1.0000E-05  1.0000E-05  1.0000E-05
       1.0000E-05  1.0000E-05   0.000       0.000       0.000       0.000    
  26    0.000       0.000       0.000       0.000       0.000       0.000       0.000       0.000       0.000       0.000    
        0.000       0.000       0.000       0.000       0.000       0.000       0.000       0.000       0.000       0.000    
        0.000       0.000       0.000       0.000       0.000       0.000       0.000       0.000       0.000       0.000    
        0.000       0.000       0.000       0.000      1.0000E-05  1.0000E-05  1.0000E-05  1.0000E-05  1.0000E-05  1.0000E-05
       1.0000E-05  1.0000E-05  1.0000E-05  1.0000E-05  1.0000E-05  1.0000E-05  1.0000E-05  1.0000E-05  1.0000E-05  1.0000E-05
       1.0000E-05  1.0000E-05  1.0000E-05  1.0000E-05  1.0000E-05  1.0000E-05  1.0000E-05  1.0000E-05  1.0000E-05  1.0000E-05
       1.0000E-05  1.0000E-05  1.0000E-05  1.0000E-05  1.0000E-05  1.0000E-05  1.0000E-05  1.0000E-05  1.0000E-05  1.0000E-05
       1.0000E-05  1.0000E-05   0.000       0.000       0.000       0.000    
  27    0.000       0.000       0.000       0.000       0.000       0.000       0.000       0.000       0.000       0.000    
        0.000       0.000       0.000       0.000       0.000       0.000       0.000       0.000       0.000       0.000    
        0.000       0.000       0.000       0.000       0.000       0.000       0.000       0.000       0.000       0.000    
        0.000       0.000       0.000      1.0000E-05  1.0000E-05  1.0000E-05  1.0000E-05  1.0000E-05  1.0000E-05  1.0000E-05
       1.0000E-05  1.0000E-05  1.0000E-05  1.0000E-05  1.0000E-05  1.0000E-05  1.0000E-05  1.0000E-05  1.0000E-05  1.0000E-05
       1.0000E-05  1.0000E-05  1.0000E-05  1.0000E-05  1.0000E-05  1.0000E-05  1.0000E-05  1.0000E-05  1.0000E-05  1.0000E-05
       1.0000E-05  1.0000E-05  1.0000E-05  1.0000E-05  1.0000E-05  1.0000E-05  1.0000E-05  1.0000E-05  1.0000E-05  1.0000E-05
       1.0000E-05  1.0000E-05  1.0000E-05   0.000       0.000       0.000    
  28    0.000       0.000       0.000       0.000       0.000       0.000       0.000       0.000       0.000       0.000    
        0.000       0.000       0.000       0.000       0.000       0.000       0.000       0.000       0.000       0.000    
        0.000       0.000       0.000       0.000       0.000       0.000       0.000       0.000       0.000       0.000    
        0.000       0.000       0.000      1.0000E-05  1.0000E-05  1.0000E-05  1.0000E-05  1.0000E-05  1.0000E-05  1.0000E-05
       1.0000E-05  1.0000E-05  1.0000E-05  1.0000E-05  1.0000E-05  1.0000E-05  1.0000E-05  1.0000E-05  1.0000E-05  1.0000E-05
       1.0000E-05  1.0000E-05  1.0000E-05  1.0000E-05  1.0000E-05  1.0000E-05  1.0000E-05  1.0000E-05  1.0000E-05  1.0000E-05
       1.0000E-05  1.0000E-05  1.0000E-05  1.0000E-05  1.0000E-05  1.0000E-05  1.0000E-05  1.0000E-05  1.0000E-05  1.0000E-05
       1.0000E-05  1.0000E-05  1.0000E-05   0.000       0.000       0.000    
  29    0.000       0.000       0.000       0.000       0.000       0.000       0.000       0.000       0.000       0.000    
        0.000       0.000       0.000       0.000       0.000       0.000       0.000       0.000       0.000       0.000    
        0.000       0.000       0.000       0.000       0.000       0.000       0.000       0.000       0.000       0.000    
        0.000       0.000       0.000       0.000      1.0000E-05  1.0000E-05  1.0000E-05  1.0000E-05  1.0000E-05  1.0000E-05
       1.0000E-05  1.0000E-05  1.0000E-05  1.0000E-05  1.0000E-05  1.0000E-05  1.0000E-05  1.0000E-05  1.0000E-05  1.0000E-05
       1.0000E-05  1.0000E-05  1.0000E-05  1.0000E-05  1.0000E-05  1.0000E-05  1.0000E-05  1.0000E-05  1.0000E-05  1.0000E-05
       1.0000E-05  1.0000E-05  1.0000E-05  1.0000E-05  1.0000E-05  1.0000E-05  1.0000E-05  1.0000E-05  1.0000E-05  1.0000E-05
       1.0000E-05  1.0000E-05   0.000       0.000       0.000       0.000    
  30    0.000       0.000       0.000       0.000       0.000       0.000       0.000       0.000       0.000       0.000    
        0.000       0.000       0.000       0.000       0.000       0.000       0.000       0.000       0.000       0.000    
        0.000       0.000       0.000       0.000       0.000       0.000       0.000       0.000       0.000       0.000    
        0.000       0.000       0.000       0.000      1.0000E-05  1.0000E-05  1.0000E-05  1.0000E-05  1.0000E-05  1.0000E-05
       1.0000E-05  1.0000E-05  1.0000E-05  1.0000E-05  1.0000E-05  1.0000E-05  1.0000E-05  1.0000E-05  1.0000E-05  1.0000E-05
       1.0000E-05  1.0000E-05  1.0000E-05  1.0000E-05  1.0000E-05  1.0000E-05  1.0000E-05  1.0000E-05  1.0000E-05  1.0000E-05
       1.0000E-05  1.0000E-05  1.0000E-05  1.0000E-05  1.0000E-05  1.0000E-05  1.0000E-05  1.0000E-05  1.0000E-05  1.0000E-05
       1.0000E-05   0.000       0.000       0.000       0.000       0.000    
  31    0.000       0.000       0.000       0.000       0.000       0.000       0.000       0.000       0.000       0.000    
        0.000       0.000       0.000       0.000       0.000       0.000       0.000       0.000       0.000       0.000    
        0.000       0.000       0.000       0.000       0.000       0.000       0.000       0.000       0.000       0.000    
        0.000       0.000       0.000       0.000      1.0000E-05  1.0000E-05  1.0000E-05  1.0000E-05  1.0000E-05  1.0000E-05
       1.0000E-05  1.0000E-05  1.0000E-05  1.0000E-05  1.0000E-05  1.0000E-05  1.0000E-05  1.0000E-05  1.0000E-05  1.0000E-05
       1.0000E-05  1.0000E-05  1.0000E-05  1.0000E-05  1.0000E-05  1.0000E-05  1.0000E-05  1.0000E-05  1.0000E-05  1.0000E-05
       1.0000E-05  1.0000E-05  1.0000E-05  1.0000E-05  1.0000E-05  1.0000E-05  1.0000E-05  1.0000E-05  1.0000E-05   0.000    
        0.000       0.000       0.000       0.000       0.000       0.000    
  32    0.000       0.000       0.000       0.000       0.000       0.000       0.000       0.000       0.000       0.000    
        0.000       0.000       0.000       0.000       0.000       0.000       0.000       0.000       0.000       0.000    
        0.000       0.000       0.000       0.000       0.000       0.000       0.000       0.000       0.000       0.000    
        0.000       0.000      1.0000E-05  1.0000E-05  1.0000E-05  1.0000E-05  1.0000E-05  1.0000E-05  1.0000E-05  1.0000E-05
       1.0000E-05  1.0000E-05  1.0000E-05  1.0000E-05  1.0000E-05  1.0000E-05  1.0000E-05  1.0000E-05  1.0000E-05  1.0000E-05
       1.0000E-05  1.0000E-05  1.0000E-05  1.0000E-05  1.0000E-05  1.0000E-05  1.0000E-05  1.0000E-05  1.0000E-05  1.0000E-05
       1.0000E-05  1.0000E-05  1.0000E-05  1.0000E-05  1.0000E-05  1.0000E-05  1.0000E-05  1.0000E-05  1.0000E-05  1.0000E-05
        0.000       0.000       0.000       0.000       0.000       0.000    
  33    0.000       0.000       0.000       0.000       0.000       0.000       0.000       0.000       0.000       0.000    
        0.000       0.000       0.000       0.000       0.000       0.000       0.000       0.000       0.000       0.000    
        0.000       0.000       0.000       0.000       0.000       0.000       0.000       0.000       0.000       0.000    
        0.000      1.0000E-05  1.0000E-05  1.0000E-05  1.0000E-05  1.0000E-05  1.0000E-05  1.0000E-05  1.0000E-05  1.0000E-05
       1.0000E-05  1.0000E-05  1.0000E-05  1.0000E-05  1.0000E-05  1.0000E-05  1.0000E-05  1.0000E-05  1.0000E-05  1.0000E-05
       1.0000E-05  1.0000E-05  1.0000E-05  1.0000E-05  1.0000E-05  1.0000E-05  1.0000E-05  1.0000E-05  1.0000E-05  1.0000E-05
       1.0000E-05  1.0000E-05  1.0000E-05  1.0000E-05  1.0000E-05  1.0000E-05  1.0000E-05  1.0000E-05  1.0000E-05  1.0000E-05
        0.000       0.000       0.000       0.000       0.000       0.000    
  34    0.000       0.000       0.000       0.000       0.000       0.000       0.000       0.000       0.000       0.000    
        0.000       0.000       0.000       0.000       0.000       0.000       0.000       0.000       0.000       0.000    
        0.000       0.000       0.000       0.000       0.000       0.000       0.000       0.000       0.000       0.000    
       1.0000E-05  1.0000E-05  1.0000E-05  1.0000E-05  1.0000E-05  1.0000E-05  1.0000E-05  1.0000E-05  1.0000E-05  1.0000E-05
       1.0000E-05  1.0000E-05  1.0000E-05  1.0000E-05  1.0000E-05  1.0000E-05  1.0000E-05  1.0000E-05  1.0000E-05  1.0000E-05
       1.0000E-05  1.0000E-05  1.0000E-05  1.0000E-05  1.0000E-05  1.0000E-05  1.0000E-05  1.0000E-05  1.0000E-05  1.0000E-05
       1.0000E-05  1.0000E-05  1.0000E-05  1.0000E-05  1.0000E-05  1.0000E-05  1.0000E-05  1.0000E-05   0.000       0.000    
        0.000       0.000       0.000       0.000       0.000       0.000    
  35    0.000       0.000       0.000       0.000       0.000       0.000       0.000       0.000       0.000       0.000    
        0.000       0.000       0.000       0.000       0.000       0.000       0.000       0.000       0.000       0.000    
        0.000       0.000       0.000       0.000       0.000       0.000       0.000       0.000       0.000       0.000    
       1.0000E-05  1.0000E-05  1.0000E-05  1.0000E-05  1.0000E-05  1.0000E-05  1.0000E-05  1.0000E-05  1.0000E-05  1.0000E-05
       1.0000E-05  1.0000E-05  1.0000E-05  1.0000E-05  1.0000E-05  1.0000E-05  1.0000E-05  1.0000E-05  1.0000E-05  1.0000E-05
       1.0000E-05  1.0000E-05  1.0000E-05  1.0000E-05  1.0000E-05  1.0000E-05  1.0000E-05  1.0000E-05  1.0000E-05  1.0000E-05
       1.0000E-05  1.0000E-05  1.0000E-05  1.0000E-05  1.0000E-05  1.0000E-05  1.0000E-05  1.0000E-05   0.000       0.000    
        0.000       0.000       0.000       0.000       0.000       0.000    
  36    0.000       0.000       0.000       0.000       0.000       0.000       0.000       0.000       0.000       0.000    
        0.000       0.000       0.000       0.000       0.000       0.000       0.000       0.000       0.000       0.000    
        0.000       0.000       0.000       0.000       0.000       0.000       0.000       0.000       0.000      1.0000E-05
       1.0000E-05  1.0000E-05  1.0000E-05  1.0000E-05  1.0000E-05  1.0000E-05  1.0000E-05  1.0000E-05  1.0000E-05  1.0000E-05
       1.0000E-05  1.0000E-05  1.0000E-05  1.0000E-05  1.0000E-05  1.0000E-05  1.0000E-05  1.0000E-05  1.0000E-05  1.0000E-05
       1.0000E-05  1.0000E-05  1.0000E-05  1.0000E-05  1.0000E-05  1.0000E-05  1.0000E-05  1.0000E-05  1.0000E-05  1.0000E-05
       1.0000E-05  1.0000E-05  1.0000E-05  1.0000E-05  1.0000E-05  1.0000E-05  1.0000E-05   0.000       0.000       0.000    
        0.000       0.000       0.000       0.000       0.000       0.000    
  37    0.000       0.000       0.000       0.000       0.000       0.000       0.000       0.000       0.000       0.000    
        0.000       0.000       0.000       0.000       0.000       0.000       0.000       0.000       0.000       0.000    
        0.000       0.000       0.000       0.000       0.000       0.000       0.000       0.000       0.000      1.0000E-05
       1.0000E-05  1.0000E-05  1.0000E-05  1.0000E-05  1.0000E-05  1.0000E-05  1.0000E-05  1.0000E-05  1.0000E-05  1.0000E-05
       1.0000E-05  1.0000E-05  1.0000E-05  1.0000E-05  1.0000E-05  1.0000E-05  1.0000E-05  1.0000E-05  1.0000E-05  1.0000E-05
       1.0000E-05  1.0000E-05  1.0000E-05  1.0000E-05  1.0000E-05  1.0000E-05  1.0000E-05  1.0000E-05  1.0000E-05  1.0000E-05
       1.0000E-05  1.0000E-05  1.0000E-05  1.0000E-05  1.0000E-05  1.0000E-05   0.000       0.000       0.000       0.000    
        0.000       0.000       0.000       0.000       0.000       0.000    
  38    0.000       0.000       0.000       0.000       0.000       0.000       0.000       0.000       0.000       0.000    
        0.000       0.000       0.000       0.000       0.000       0.000       0.000       0.000       0.000       0.000    
        0.000       0.000       0.000       0.000       0.000       0.000       0.000       0.000      1.0000E-05  1.0000E-05
       1.0000E-05  1.0000E-05  1.0000E-05  1.0000E-05  1.0000E-05  1.0000E-05  1.0000E-05  1.0000E-05  1.0000E-05  1.0000E-05
       1.0000E-05  1.0000E-05  1.0000E-05  1.0000E-05  1.0000E-05  1.0000E-05  1.0000E-05  1.0000E-05  1.0000E-05  1.0000E-05
       1.0000E-05  1.0000E-05  1.0000E-05  1.0000E-05  1.0000E-05  1.0000E-05  1.0000E-05  1.0000E-05  1.0000E-05  1.0000E-05
       1.0000E-05  1.0000E-05  1.0000E-05  1.0000E-05  1.0000E-05  1.0000E-05   0.000       0.000       0.000       0.000    
        0.000       0.000       0.000       0.000       0.000       0.000    
  39    0.000       0.000       0.000       0.000       0.000       0.000       0.000       0.000       0.000       0.000    
        0.000       0.000       0.000       0.000       0.000       0.000       0.000       0.000       0.000       0.000    
        0.000       0.000       0.000       0.000       0.000       0.000       0.000       0.000      1.0000E-05  1.0000E-05
       1.0000E-05  1.0000E-05  1.0000E-05  1.0000E-05  1.0000E-05  1.0000E-05  1.0000E-05  1.0000E-05  1.0000E-05  1.0000E-05
       1.0000E-05  1.0000E-05  1.0000E-05  1.0000E-05  1.0000E-05  1.0000E-05  1.0000E-05  1.0000E-05  1.0000E-05  1.0000E-05
       1.0000E-05  1.0000E-05  1.0000E-05  1.0000E-05  1.0000E-05  1.0000E-05  1.0000E-05  1.0000E-05  1.0000E-05  1.0000E-05
       1.0000E-05  1.0000E-05  1.0000E-05  1.0000E-05  1.0000E-05  1.0000E-05   0.000       0.000       0.000       0.000    
        0.000       0.000       0.000       0.000       0.000       0.000    
  40    0.000       0.000       0.000       0.000       0.000       0.000       0.000       0.000       0.000       0.000    
        0.000       0.000       0.000       0.000       0.000       0.000       0.000       0.000       0.000       0.000    
        0.000       0.000       0.000       0.000       0.000       0.000       0.000       0.000      1.0000E-05  1.0000E-05
       1.0000E-05  1.0000E-05  1.0000E-05  1.0000E-05  1.0000E-05  1.0000E-05  1.0000E-05  1.0000E-05  1.0000E-05  1.0000E-05
       1.0000E-05  1.0000E-05  1.0000E-05  1.0000E-05  1.0000E-05  1.0000E-05  1.0000E-05  1.0000E-05  1.0000E-05  1.0000E-05
       1.0000E-05  1.0000E-05  1.0000E-05  1.0000E-05  1.0000E-05  1.0000E-05  1.0000E-05  1.0000E-05  1.0000E-05  1.0000E-05
       1.0000E-05  1.0000E-05  1.0000E-05  1.0000E-05  1.0000E-05  1.0000E-05   0.000       0.000       0.000       0.000    
        0.000       0.000       0.000       0.000       0.000       0.000    
  41    0.000       0.000       0.000       0.000       0.000       0.000       0.000       0.000       0.000       0.000    
        0.000       0.000       0.000       0.000       0.000       0.000       0.000       0.000       0.000       0.000    
        0.000       0.000       0.000       0.000       0.000       0.000       0.000      1.0000E-05  1.0000E-05  1.0000E-05
       1.0000E-05  1.0000E-05  1.0000E-05  1.0000E-05  1.0000E-05  1.0000E-05  1.0000E-05  1.0000E-05  1.0000E-05  1.0000E-05
       1.0000E-05  1.0000E-05  1.0000E-05  1.0000E-05  1.0000E-05  1.0000E-05  1.0000E-05  1.0000E-05  1.0000E-05  1.0000E-05
       1.0000E-05  1.0000E-05  1.0000E-05  1.0000E-05  1.0000E-05  1.0000E-05  1.0000E-05  1.0000E-05  1.0000E-05  1.0000E-05
       1.0000E-05  1.0000E-05  1.0000E-05  1.0000E-05  1.0000E-05   0.000       0.000       0.000       0.000       0.000    
        0.000       0.000       0.000       0.000       0.000       0.000    
  42    0.000       0.000       0.000       0.000       0.000       0.000       0.000       0.000       0.000       0.000    
        0.000       0.000       0.000       0.000       0.000       0.000       0.000       0.000       0.000       0.000    
        0.000       0.000       0.000       0.000       0.000       0.000       0.000      1.0000E-05  1.0000E-05  1.0000E-05
       1.0000E-05  1.0000E-05  1.0000E-05  1.0000E-05  1.0000E-05  1.0000E-05  1.0000E-05  1.0000E-05  1.0000E-05  1.0000E-05
       1.0000E-05  1.0000E-05  1.0000E-05  1.0000E-05  1.0000E-05  1.0000E-05  1.0000E-05  1.0000E-05  1.0000E-05  1.0000E-05
       1.0000E-05  1.0000E-05  1.0000E-05  1.0000E-05  1.0000E-05  1.0000E-05  1.0000E-05  1.0000E-05  1.0000E-05  1.0000E-05
       1.0000E-05  1.0000E-05  1.0000E-05  1.0000E-05  1.0000E-05  1.0000E-05   0.000       0.000       0.000       0.000    
        0.000       0.000       0.000       0.000       0.000       0.000    
  43    0.000       0.000       0.000       0.000       0.000       0.000       0.000       0.000       0.000       0.000    
        0.000       0.000       0.000       0.000       0.000       0.000       0.000       0.000       0.000       0.000    
        0.000       0.000       0.000       0.000       0.000       0.000      1.0000E-05  1.0000E-05  1.0000E-05  1.0000E-05
       1.0000E-05  1.0000E-05  1.0000E-05  1.0000E-05  1.0000E-05  1.0000E-05  1.0000E-05  1.0000E-05  1.0000E-05  1.0000E-05
       1.0000E-05  1.0000E-05  1.0000E-05  1.0000E-05  1.0000E-05  1.0000E-05  1.0000E-05  1.0000E-05  1.0000E-05  1.0000E-05
       1.0000E-05  1.0000E-05  1.0000E-05  1.0000E-05  1.0000E-05  1.0000E-05  1.0000E-05  1.0000E-05  1.0000E-05  1.0000E-05
       1.0000E-05  1.0000E-05  1.0000E-05  1.0000E-05  1.0000E-05  1.0000E-05  1.0000E-05   0.000       0.000       0.000    
        0.000       0.000       0.000       0.000       0.000       0.000    
  44    0.000       0.000       0.000       0.000       0.000       0.000       0.000       0.000       0.000       0.000    
        0.000       0.000       0.000       0.000       0.000       0.000       0.000       0.000       0.000       0.000    
        0.000       0.000       0.000       0.000       0.000       0.000      1.0000E-05  1.0000E-05  1.0000E-05  1.0000E-05
       1.0000E-05  1.0000E-05  1.0000E-05  1.0000E-05  1.0000E-05  1.0000E-05  1.0000E-05  1.0000E-05  1.0000E-05  1.0000E-05
       1.0000E-05  1.0000E-05  1.0000E-05  1.0000E-05  1.0000E-05  1.0000E-05  1.0000E-05  1.0000E-05  1.0000E-05  1.0000E-05
       1.0000E-05  1.0000E-05  1.0000E-05  1.0000E-05  1.0000E-05  1.0000E-05  1.0000E-05  1.0000E-05  1.0000E-05  1.0000E-05
       1.0000E-05  1.0000E-05  1.0000E-05  1.0000E-05  1.0000E-05  1.0000E-05  1.0000E-05   0.000       0.000       0.000    
        0.000       0.000       0.000       0.000       0.000       0.000    
  45    0.000       0.000       0.000       0.000       0.000       0.000       0.000       0.000       0.000       0.000    
        0.000       0.000       0.000       0.000       0.000       0.000       0.000       0.000       0.000       0.000    
        0.000       0.000       0.000       0.000       0.000      1.0000E-05  1.0000E-05  1.0000E-05  1.0000E-05  1.0000E-05
       1.0000E-05  1.0000E-05  1.0000E-05  1.0000E-05  1.0000E-05  1.0000E-05  1.0000E-05  1.0000E-05  1.0000E-05  1.0000E-05
       1.0000E-05  1.0000E-05  1.0000E-05  1.0000E-05  1.0000E-05  1.0000E-05  1.0000E-05  1.0000E-05  1.0000E-05  1.0000E-05
       1.0000E-05  1.0000E-05  1.0000E-05  1.0000E-05  1.0000E-05  1.0000E-05  1.0000E-05  1.0000E-05  1.0000E-05  1.0000E-05
       1.0000E-05  1.0000E-05  1.0000E-05  1.0000E-05  1.0000E-05  1.0000E-05  1.0000E-05  1.0000E-05   0.000       0.000    
        0.000       0.000       0.000       0.000       0.000       0.000    
  46    0.000       0.000       0.000       0.000       0.000       0.000       0.000       0.000       0.000       0.000    
        0.000       0.000       0.000       0.000       0.000       0.000       0.000       0.000       0.000       0.000    
        0.000       0.000       0.000       0.000       0.000      1.0000E-05  1.0000E-05  1.0000E-05  1.0000E-05  1.0000E-05
       1.0000E-05  1.0000E-05  1.0000E-05  1.0000E-05  1.0000E-05  1.0000E-05  1.0000E-05  1.0000E-05  1.0000E-05  1.0000E-05
       1.0000E-05  1.0000E-05  1.0000E-05  1.0000E-05  1.0000E-05  1.0000E-05  1.0000E-05  1.0000E-05  1.0000E-05  1.0000E-05
       1.0000E-05  1.0000E-05  1.0000E-05  1.0000E-05  1.0000E-05  1.0000E-05  1.0000E-05  1.0000E-05  1.0000E-05  1.0000E-05
       1.0000E-05  1.0000E-05  1.0000E-05  1.0000E-05  1.0000E-05  1.0000E-05  1.0000E-05  1.0000E-05   0.000       0.000    
        0.000       0.000       0.000       0.000       0.000       0.000    
  47    0.000       0.000       0.000       0.000       0.000       0.000       0.000       0.000       0.000       0.000    
        0.000       0.000       0.000       0.000       0.000       0.000       0.000       0.000       0.000       0.000    
        0.000       0.000       0.000       0.000       0.000      1.0000E-05  1.0000E-05  1.0000E-05  1.0000E-05  1.0000E-05
       1.0000E-05  1.0000E-05  1.0000E-05  1.0000E-05  1.0000E-05  1.0000E-05  1.0000E-05  1.0000E-05  1.0000E-05  1.0000E-05
       1.0000E-05  1.0000E-05  1.0000E-05  1.0000E-05  1.0000E-05  1.0000E-05  1.0000E-05  1.0000E-05  1.0000E-05  1.0000E-05
       1.0000E-05  1.0000E-05  1.0000E-05  1.0000E-05  1.0000E-05  1.0000E-05  1.0000E-05  1.0000E-05  1.0000E-05  1.0000E-05
       1.0000E-05  1.0000E-05  1.0000E-05  1.0000E-05  1.0000E-05  1.0000E-05  1.0000E-05  1.0000E-05   0.000       0.000    
        0.000       0.000       0.000       0.000       0.000       0.000    
  48    0.000       0.000       0.000       0.000       0.000       0.000       0.000       0.000       0.000       0.000    
        0.000       0.000       0.000       0.000       0.000       0.000       0.000       0.000       0.000       0.000    
        0.000       0.000       0.000       0.000       0.000      1.0000E-05  1.0000E-05  1.0000E-05  1.0000E-05  1.0000E-05
       1.0000E-05  1.0000E-05  1.0000E-05  1.0000E-05  1.0000E-05  1.0000E-05  1.0000E-05  1.0000E-05  1.0000E-05  1.0000E-05
       1.0000E-05  1.0000E-05  1.0000E-05  1.0000E-05  1.0000E-05  1.0000E-05  1.0000E-05  1.0000E-05  1.0000E-05  1.0000E-05
       1.0000E-05  1.0000E-05  1.0000E-05  1.0000E-05  1.0000E-05  1.0000E-05  1.0000E-05  1.0000E-05  1.0000E-05  1.0000E-05
       1.0000E-05  1.0000E-05  1.0000E-05  1.0000E-05  1.0000E-05  1.0000E-05   0.000       0.000       0.000       0.000    
        0.000       0.000       0.000       0.000       0.000       0.000    
  49    0.000       0.000       0.000       0.000       0.000       0.000       0.000       0.000       0.000       0.000    
        0.000       0.000       0.000       0.000       0.000       0.000       0.000       0.000       0.000       0.000    
        0.000       0.000       0.000       0.000       0.000      1.0000E-05  1.0000E-05  1.0000E-05  1.0000E-05  1.0000E-05
       1.0000E-05  1.0000E-05  1.0000E-05  1.0000E-05  1.0000E-05  1.0000E-05  1.0000E-05  1.0000E-05  1.0000E-05  1.0000E-05
       1.0000E-05  1.0000E-05  1.0000E-05  1.0000E-05  1.0000E-05  1.0000E-05  1.0000E-05  1.0000E-05  1.0000E-05  1.0000E-05
       1.0000E-05  1.0000E-05  1.0000E-05  1.0000E-05  1.0000E-05  1.0000E-05  1.0000E-05  1.0000E-05  1.0000E-05  1.0000E-05
       1.0000E-05  1.0000E-05  1.0000E-05  1.0000E-05  1.0000E-05   0.000       0.000       0.000       0.000       0.000    
        0.000       0.000       0.000       0.000       0.000       0.000    
  50    0.000       0.000       0.000       0.000       0.000       0.000       0.000       0.000       0.000       0.000    
        0.000       0.000       0.000       0.000       0.000       0.000       0.000       0.000       0.000       0.000    
        0.000       0.000       0.000       0.000       0.000      1.0000E-05  1.0000E-05  1.0000E-05  1.0000E-05  1.0000E-05
       1.0000E-05  1.0000E-05  1.0000E-05  1.0000E-05  1.0000E-05  1.0000E-05  1.0000E-05  1.0000E-05  1.0000E-05  1.0000E-05
       1.0000E-05  1.0000E-05  1.0000E-05  1.0000E-05  1.0000E-05  1.0000E-05  1.0000E-05  1.0000E-05  1.0000E-05  1.0000E-05
       1.0000E-05  1.0000E-05  1.0000E-05  1.0000E-05  1.0000E-05  1.0000E-05  1.0000E-05  1.0000E-05  1.0000E-05  1.0000E-05
       1.0000E-05  1.0000E-05  1.0000E-05  1.0000E-05   0.000       0.000       0.000       0.000       0.000       0.000    
        0.000       0.000       0.000       0.000       0.000       0.000    
  51    0.000       0.000       0.000       0.000       0.000       0.000       0.000       0.000       0.000       0.000    
        0.000       0.000       0.000       0.000       0.000       0.000       0.000       0.000       0.000       0.000    
        0.000       0.000       0.000       0.000       0.000      1.0000E-05  1.0000E-05  1.0000E-05  1.0000E-05  1.0000E-05
       1.0000E-05  1.0000E-05  1.0000E-05  1.0000E-05  1.0000E-05  1.0000E-05  1.0000E-05  1.0000E-05  1.0000E-05  1.0000E-05
       1.0000E-05  1.0000E-05  1.0000E-05  1.0000E-05  1.0000E-05  1.0000E-05  1.0000E-05  1.0000E-05  1.0000E-05  1.0000E-05
       1.0000E-05  1.0000E-05  1.0000E-05  1.0000E-05  1.0000E-05  1.0000E-05  1.0000E-05  1.0000E-05  1.0000E-05  1.0000E-05
       1.0000E-05  1.0000E-05  1.0000E-05  1.0000E-05   0.000       0.000       0.000       0.000       0.000       0.000    
        0.000       0.000       0.000       0.000       0.000       0.000    
  52    0.000       0.000       0.000       0.000       0.000       0.000       0.000       0.000       0.000       0.000    
        0.000       0.000       0.000       0.000       0.000       0.000       0.000       0.000       0.000       0.000    
        0.000       0.000       0.000       0.000       0.000      1.0000E-05  1.0000E-05  1.0000E-05  1.0000E-05  1.0000E-05
       1.0000E-05  1.0000E-05  1.0000E-05  1.0000E-05  1.0000E-05  1.0000E-05  1.0000E-05  1.0000E-05  1.0000E-05  1.0000E-05
       1.0000E-05  1.0000E-05  1.0000E-05  1.0000E-05  1.0000E-05  1.0000E-05  1.0000E-05  1.0000E-05  1.0000E-05  1.0000E-05
       1.0000E-05  1.0000E-05  1.0000E-05  1.0000E-05  1.0000E-05  1.0000E-05  1.0000E-05  1.0000E-05  1.0000E-05  1.0000E-05
       1.0000E-05  1.0000E-05  1.0000E-05  1.0000E-05   0.000       0.000       0.000       0.000       0.000       0.000    
        0.000       0.000       0.000       0.000       0.000       0.000    
  53    0.000       0.000       0.000       0.000       0.000       0.000       0.000       0.000       0.000       0.000    
        0.000       0.000       0.000       0.000       0.000       0.000       0.000       0.000       0.000       0.000    
        0.000       0.000       0.000       0.000       0.000       0.000       0.000      1.0000E-05  1.0000E-05  1.0000E-05
       1.0000E-05  1.0000E-05  1.0000E-05  1.0000E-05  1.0000E-05  1.0000E-05  1.0000E-05  1.0000E-05  1.0000E-05  1.0000E-05
       1.0000E-05  1.0000E-05  1.0000E-05  1.0000E-05  1.0000E-05  1.0000E-05  1.0000E-05  1.0000E-05  1.0000E-05  1.0000E-05
       1.0000E-05  1.0000E-05  1.0000E-05  1.0000E-05  1.0000E-05  1.0000E-05  1.0000E-05  1.0000E-05  1.0000E-05  1.0000E-05
       1.0000E-05  1.0000E-05  1.0000E-05   0.000       0.000       0.000       0.000       0.000       0.000       0.000    
        0.000       0.000       0.000       0.000       0.000       0.000    
  54    0.000       0.000       0.000       0.000       0.000       0.000       0.000       0.000       0.000       0.000    
        0.000       0.000       0.000       0.000       0.000       0.000       0.000       0.000       0.000       0.000    
        0.000       0.000       0.000       0.000       0.000       0.000      1.0000E-05  1.0000E-05  1.0000E-05  1.0000E-05
       1.0000E-05  1.0000E-05  1.0000E-05  1.0000E-05  1.0000E-05  1.0000E-05  1.0000E-05  1.0000E-05  1.0000E-05  1.0000E-05
       1.0000E-05  1.0000E-05  1.0000E-05  1.0000E-05  1.0000E-05  1.0000E-05  1.0000E-05  1.0000E-05  1.0000E-05  1.0000E-05
       1.0000E-05  1.0000E-05  1.0000E-05  1.0000E-05  1.0000E-05  1.0000E-05  1.0000E-05  1.0000E-05  1.0000E-05  1.0000E-05
       1.0000E-05  1.0000E-05   0.000       0.000       0.000       0.000       0.000       0.000       0.000       0.000    
        0.000       0.000       0.000       0.000       0.000       0.000    
  55    0.000       0.000       0.000       0.000       0.000       0.000       0.000       0.000       0.000       0.000    
        0.000       0.000       0.000       0.000       0.000       0.000       0.000       0.000       0.000       0.000    
        0.000       0.000       0.000       0.000       0.000       0.000      1.0000E-05  1.0000E-05  1.0000E-05  1.0000E-05
       1.0000E-05  1.0000E-05  1.0000E-05  1.0000E-05  1.0000E-05  1.0000E-05  1.0000E-05  1.0000E-05  1.0000E-05  1.0000E-05
       1.0000E-05  1.0000E-05  1.0000E-05  1.0000E-05  1.0000E-05  1.0000E-05  1.0000E-05  1.0000E-05  1.0000E-05  1.0000E-05
       1.0000E-05  1.0000E-05  1.0000E-05  1.0000E-05  1.0000E-05  1.0000E-05  1.0000E-05  1.0000E-05  1.0000E-05  1.0000E-05
       1.0000E-05  1.0000E-05   0.000       0.000       0.000       0.000       0.000       0.000       0.000       0.000    
        0.000       0.000       0.000       0.000       0.000       0.000    
  56    0.000       0.000       0.000       0.000       0.000       0.000       0.000       0.000       0.000       0.000    
        0.000       0.000       0.000       0.000       0.000       0.000       0.000       0.000       0.000       0.000    
        0.000       0.000       0.000       0.000       0.000       0.000      1.0000E-05  1.0000E-05  1.0000E-05  1.0000E-05
       1.0000E-05  1.0000E-05  1.0000E-05  1.0000E-05  1.0000E-05  1.0000E-05  1.0000E-05  1.0000E-05  1.0000E-05  1.0000E-05
       1.0000E-05  1.0000E-05  1.0000E-05  1.0000E-05  1.0000E-05  1.0000E-05  1.0000E-05  1.0000E-05  1.0000E-05  1.0000E-05
       1.0000E-05  1.0000E-05  1.0000E-05  1.0000E-05  1.0000E-05  1.0000E-05  1.0000E-05  1.0000E-05  1.0000E-05  1.0000E-05
       1.0000E-05  1.0000E-05   0.000       0.000       0.000       0.000       0.000       0.000       0.000       0.000    
        0.000       0.000       0.000       0.000       0.000       0.000    
  57    0.000       0.000       0.000       0.000       0.000       0.000       0.000       0.000       0.000       0.000    
        0.000       0.000       0.000       0.000       0.000       0.000       0.000       0.000       0.000       0.000    
        0.000       0.000       0.000       0.000      1.0000E-05  1.0000E-05  1.0000E-05  1.0000E-05  1.0000E-05  1.0000E-05
       1.0000E-05  1.0000E-05  1.0000E-05  1.0000E-05  1.0000E-05  1.0000E-05  1.0000E-05  1.0000E-05  1.0000E-05  1.0000E-05
       1.0000E-05  1.0000E-05  1.0000E-05  1.0000E-05  1.0000E-05  1.0000E-05  1.0000E-05  1.0000E-05  1.0000E-05  1.0000E-05
       1.0000E-05  1.0000E-05  1.0000E-05  1.0000E-05  1.0000E-05  1.0000E-05  1.0000E-05  1.0000E-05  1.0000E-05  1.0000E-05
       1.0000E-05  1.0000E-05   0.000       0.000       0.000       0.000       0.000       0.000       0.000       0.000    
        0.000       0.000       0.000       0.000       0.000       0.000    
  58    0.000       0.000       0.000       0.000       0.000       0.000       0.000       0.000       0.000       0.000    
        0.000       0.000       0.000       0.000       0.000       0.000       0.000       0.000       0.000       0.000    
        0.000       0.000       0.000       0.000      1.0000E-05  1.0000E-05  1.0000E-05  1.0000E-05  1.0000E-05  1.0000E-05
       1.0000E-05  1.0000E-05  1.0000E-05  1.0000E-05  1.0000E-05  1.0000E-05  1.0000E-05  1.0000E-05  1.0000E-05  1.0000E-05
       1.0000E-05  1.0000E-05  1.0000E-05  1.0000E-05  1.0000E-05  1.0000E-05  1.0000E-05  1.0000E-05  1.0000E-05  1.0000E-05
       1.0000E-05  1.0000E-05  1.0000E-05  1.0000E-05  1.0000E-05  1.0000E-05  1.0000E-05  1.0000E-05  1.0000E-05  1.0000E-05
       1.0000E-05  1.0000E-05   0.000       0.000       0.000       0.000       0.000       0.000       0.000       0.000    
        0.000       0.000       0.000       0.000       0.000       0.000    
  59    0.000       0.000       0.000       0.000       0.000       0.000       0.000       0.000       0.000       0.000    
        0.000       0.000       0.000       0.000       0.000       0.000       0.000       0.000       0.000       0.000    
        0.000       0.000       0.000      1.0000E-05  1.0000E-05  1.0000E-05  1.0000E-05  1.0000E-05  1.0000E-05  1.0000E-05
       1.0000E-05  1.0000E-05  1.0000E-05  1.0000E-05  1.0000E-05  1.0000E-05  1.0000E-05  1.0000E-05  1.0000E-05  1.0000E-05
       1.0000E-05  1.0000E-05  1.0000E-05  1.0000E-05  1.0000E-05  1.0000E-05  1.0000E-05  1.0000E-05  1.0000E-05  1.0000E-05
       1.0000E-05  1.0000E-05  1.0000E-05  1.0000E-05  1.0000E-05  1.0000E-05  1.0000E-05  1.0000E-05  1.0000E-05  1.0000E-05
       1.0000E-05   0.000       0.000       0.000       0.000       0.000       0.000       0.000       0.000       0.000    
        0.000       0.000       0.000       0.000       0.000       0.000    
  60    0.000       0.000       0.000       0.000       0.000       0.000       0.000       0.000       0.000       0.000    
        0.000       0.000       0.000       0.000       0.000       0.000       0.000       0.000       0.000       0.000    
        0.000       0.000       0.000      1.0000E-05  1.0000E-05  1.0000E-05  1.0000E-05  1.0000E-05  1.0000E-05  1.0000E-05
       1.0000E-05  1.0000E-05  1.0000E-05  1.0000E-05  1.0000E-05  1.0000E-05  1.0000E-05  1.0000E-05  1.0000E-05  1.0000E-05
       1.0000E-05  1.0000E-05  1.0000E-05  1.0000E-05  1.0000E-05  1.0000E-05  1.0000E-05  1.0000E-05  1.0000E-05  1.0000E-05
       1.0000E-05  1.0000E-05  1.0000E-05  1.0000E-05  1.0000E-05  1.0000E-05  1.0000E-05  1.0000E-05  1.0000E-05  1.0000E-05
        0.000       0.000       0.000       0.000       0.000       0.000       0.000       0.000       0.000       0.000    
        0.000       0.000       0.000       0.000       0.000       0.000    
  61    0.000       0.000       0.000       0.000       0.000       0.000       0.000       0.000       0.000       0.000    
        0.000       0.000       0.000       0.000       0.000       0.000       0.000       0.000       0.000       0.000    
        0.000       0.000       0.000      1.0000E-05  1.0000E-05  1.0000E-05  1.0000E-05  1.0000E-05  1.0000E-05  1.0000E-05
       1.0000E-05  1.0000E-05  1.0000E-05  1.0000E-05  1.0000E-05  1.0000E-05  1.0000E-05  1.0000E-05  1.0000E-05  1.0000E-05
       1.0000E-05  1.0000E-05  1.0000E-05  1.0000E-05  1.0000E-05  1.0000E-05  1.0000E-05  1.0000E-05  1.0000E-05  1.0000E-05
       1.0000E-05  1.0000E-05  1.0000E-05  1.0000E-05  1.0000E-05  1.0000E-05  1.0000E-05  1.0000E-05  1.0000E-05  1.0000E-05
        0.000       0.000       0.000       0.000       0.000       0.000       0.000       0.000       0.000       0.000    
        0.000       0.000       0.000       0.000       0.000       0.000    
  62    0.000       0.000       0.000       0.000       0.000       0.000       0.000       0.000       0.000       0.000    
        0.000       0.000       0.000       0.000       0.000       0.000       0.000       0.000       0.000       0.000    
        0.000       0.000       0.000      1.0000E-05  1.0000E-05  1.0000E-05  1.0000E-05  1.0000E-05  1.0000E-05  1.0000E-05
       1.0000E-05  1.0000E-05  1.0000E-05  1.0000E-05  1.0000E-05  1.0000E-05  1.0000E-05  1.0000E-05  1.0000E-05  1.0000E-05
       1.0000E-05  1.0000E-05  1.0000E-05  1.0000E-05  1.0000E-05  1.0000E-05  1.0000E-05  1.0000E-05  1.0000E-05  1.0000E-05
       1.0000E-05  1.0000E-05  1.0000E-05  1.0000E-05  1.0000E-05  1.0000E-05  1.0000E-05  1.0000E-05  1.0000E-05  1.0000E-05
        0.000       0.000       0.000       0.000       0.000       0.000       0.000       0.000       0.000       0.000    
        0.000       0.000       0.000       0.000       0.000       0.000    
  63    0.000       0.000       0.000       0.000       0.000       0.000       0.000       0.000       0.000       0.000    
        0.000       0.000       0.000       0.000       0.000       0.000       0.000       0.000       0.000       0.000    
        0.000       0.000       0.000      1.0000E-05  1.0000E-05  1.0000E-05  1.0000E-05  1.0000E-05  1.0000E-05  1.0000E-05
       1.0000E-05  1.0000E-05  1.0000E-05  1.0000E-05  1.0000E-05  1.0000E-05  1.0000E-05  1.0000E-05  1.0000E-05  1.0000E-05
       1.0000E-05  1.0000E-05  1.0000E-05  1.0000E-05  1.0000E-05  1.0000E-05  1.0000E-05  1.0000E-05  1.0000E-05  1.0000E-05
       1.0000E-05  1.0000E-05  1.0000E-05  1.0000E-05  1.0000E-05  1.0000E-05  1.0000E-05  1.0000E-05  1.0000E-05  1.0000E-05
        0.000       0.000       0.000       0.000       0.000       0.000       0.000       0.000       0.000       0.000    
        0.000       0.000       0.000       0.000       0.000       0.000    
  64    0.000       0.000       0.000       0.000       0.000       0.000       0.000       0.000       0.000       0.000    
        0.000       0.000       0.000       0.000       0.000       0.000       0.000       0.000       0.000       0.000    
        0.000       0.000      1.0000E-05  1.0000E-05  1.0000E-05  1.0000E-05  1.0000E-05  1.0000E-05  1.0000E-05  1.0000E-05
       1.0000E-05  1.0000E-05  1.0000E-05  1.0000E-05  1.0000E-05  1.0000E-05  1.0000E-05  1.0000E-05  1.0000E-05  1.0000E-05
       1.0000E-05  1.0000E-05  1.0000E-05  1.0000E-05  1.0000E-05  1.0000E-05  1.0000E-05  1.0000E-05  1.0000E-05  1.0000E-05
       1.0000E-05  1.0000E-05  1.0000E-05  1.0000E-05  1.0000E-05  1.0000E-05  1.0000E-05  1.0000E-05  1.0000E-05  1.0000E-05
        0.000       0.000       0.000       0.000       0.000       0.000       0.000       0.000       0.000       0.000    
        0.000       0.000       0.000       0.000       0.000       0.000    
  65    0.000       0.000       0.000       0.000       0.000       0.000       0.000       0.000       0.000       0.000    
        0.000       0.000       0.000       0.000       0.000       0.000       0.000       0.000       0.000       0.000    
        0.000       0.000      1.0000E-05  1.0000E-05  1.0000E-05  1.0000E-05  1.0000E-05  1.0000E-05  1.0000E-05  1.0000E-05
       1.0000E-05  1.0000E-05  1.0000E-05  1.0000E-05  1.0000E-05  1.0000E-05  1.0000E-05  1.0000E-05  1.0000E-05  1.0000E-05
       1.0000E-05  1.0000E-05  1.0000E-05  1.0000E-05  1.0000E-05  1.0000E-05  1.0000E-05  1.0000E-05  1.0000E-05  1.0000E-05
       1.0000E-05  1.0000E-05  1.0000E-05  1.0000E-05  1.0000E-05  1.0000E-05  1.0000E-05  1.0000E-05   0.000       0.000    
        0.000       0.000       0.000       0.000       0.000       0.000       0.000       0.000       0.000       0.000    
        0.000       0.000       0.000       0.000       0.000       0.000    
  66    0.000       0.000       0.000       0.000       0.000       0.000       0.000       0.000       0.000       0.000    
        0.000       0.000       0.000       0.000       0.000       0.000       0.000       0.000       0.000       0.000    
        0.000       0.000      1.0000E-05  1.0000E-05  1.0000E-05  1.0000E-05  1.0000E-05  1.0000E-05  1.0000E-05  1.0000E-05
       1.0000E-05  1.0000E-05  1.0000E-05  1.0000E-05  1.0000E-05  1.0000E-05  1.0000E-05  1.0000E-05  1.0000E-05  1.0000E-05
       1.0000E-05  1.0000E-05  1.0000E-05  1.0000E-05  1.0000E-05  1.0000E-05  1.0000E-05  1.0000E-05  1.0000E-05  1.0000E-05
       1.0000E-05  1.0000E-05  1.0000E-05  1.0000E-05  1.0000E-05  1.0000E-05  1.0000E-05   0.000       0.000       0.000    
        0.000       0.000       0.000       0.000       0.000       0.000       0.000       0.000       0.000       0.000    
        0.000       0.000       0.000       0.000       0.000       0.000    
  67    0.000       0.000       0.000       0.000       0.000       0.000       0.000       0.000       0.000       0.000    
        0.000       0.000       0.000       0.000       0.000       0.000       0.000       0.000       0.000       0.000    
        0.000       0.000       0.000      1.0000E-05  1.0000E-05  1.0000E-05  1.0000E-05  1.0000E-05  1.0000E-05  1.0000E-05
       1.0000E-05  1.0000E-05  1.0000E-05  1.0000E-05  1.0000E-05  1.0000E-05  1.0000E-05  1.0000E-05  1.0000E-05  1.0000E-05
       1.0000E-05  1.0000E-05  1.0000E-05  1.0000E-05  1.0000E-05  1.0000E-05  1.0000E-05  1.0000E-05  1.0000E-05  1.0000E-05
       1.0000E-05  1.0000E-05  1.0000E-05  1.0000E-05  1.0000E-05  1.0000E-05   0.000       0.000       0.000       0.000    
        0.000       0.000       0.000       0.000       0.000       0.000       0.000       0.000       0.000       0.000    
        0.000       0.000       0.000       0.000       0.000       0.000    
  68    0.000       0.000       0.000       0.000       0.000       0.000       0.000       0.000       0.000       0.000    
        0.000       0.000       0.000       0.000       0.000       0.000       0.000       0.000       0.000       0.000    
        0.000       0.000       0.000      1.0000E-05  1.0000E-05  1.0000E-05  1.0000E-05  1.0000E-05  1.0000E-05  1.0000E-05
       1.0000E-05  1.0000E-05  1.0000E-05  1.0000E-05  1.0000E-05  1.0000E-05  1.0000E-05  1.0000E-05  1.0000E-05  1.0000E-05
       1.0000E-05  1.0000E-05  1.0000E-05  1.0000E-05  1.0000E-05  1.0000E-05  1.0000E-05  1.0000E-05  1.0000E-05  1.0000E-05
       1.0000E-05  1.0000E-05  1.0000E-05  1.0000E-05  1.0000E-05  1.0000E-05   0.000       0.000       0.000       0.000    
        0.000       0.000       0.000       0.000       0.000       0.000       0.000       0.000       0.000       0.000    
        0.000       0.000       0.000       0.000       0.000       0.000    
  69    0.000       0.000       0.000       0.000       0.000       0.000       0.000       0.000       0.000       0.000    
        0.000       0.000       0.000       0.000       0.000       0.000       0.000       0.000       0.000       0.000    
        0.000       0.000       0.000      1.0000E-05  1.0000E-05  1.0000E-05  1.0000E-05  1.0000E-05  1.0000E-05  1.0000E-05
       1.0000E-05  1.0000E-05  1.0000E-05  1.0000E-05  1.0000E-05  1.0000E-05  1.0000E-05  1.0000E-05  1.0000E-05  1.0000E-05
       1.0000E-05  1.0000E-05  1.0000E-05  1.0000E-05  1.0000E-05  1.0000E-05  1.0000E-05  1.0000E-05  1.0000E-05  1.0000E-05
       1.0000E-05  1.0000E-05  1.0000E-05  1.0000E-05   0.000       0.000       0.000       0.000       0.000       0.000    
        0.000       0.000       0.000       0.000       0.000       0.000       0.000       0.000       0.000       0.000    
        0.000       0.000       0.000       0.000       0.000       0.000    
  70    0.000       0.000       0.000       0.000       0.000       0.000       0.000       0.000       0.000       0.000    
        0.000       0.000       0.000       0.000       0.000       0.000       0.000       0.000       0.000       0.000    
        0.000       0.000       0.000      1.0000E-05  1.0000E-05  1.0000E-05  1.0000E-05  1.0000E-05  1.0000E-05  1.0000E-05
       1.0000E-05  1.0000E-05  1.0000E-05  1.0000E-05  1.0000E-05  1.0000E-05  1.0000E-05  1.0000E-05  1.0000E-05  1.0000E-05
       1.0000E-05  1.0000E-05  1.0000E-05  1.0000E-05  1.0000E-05  1.0000E-05  1.0000E-05  1.0000E-05  1.0000E-05  1.0000E-05
       1.0000E-05  1.0000E-05  1.0000E-05  1.0000E-05   0.000       0.000       0.000       0.000       0.000       0.000    
        0.000       0.000       0.000       0.000       0.000       0.000       0.000       0.000       0.000       0.000    
        0.000       0.000       0.000       0.000       0.000       0.000    
  71    0.000       0.000       0.000       0.000       0.000       0.000       0.000       0.000       0.000       0.000    
        0.000       0.000       0.000       0.000       0.000       0.000       0.000       0.000       0.000       0.000    
        0.000       0.000       0.000      1.0000E-05  1.0000E-05  1.0000E-05  1.0000E-05  1.0000E-05  1.0000E-05  1.0000E-05
       1.0000E-05  1.0000E-05  1.0000E-05  1.0000E-05  1.0000E-05  1.0000E-05  1.0000E-05  1.0000E-05  1.0000E-05  1.0000E-05
       1.0000E-05  1.0000E-05  1.0000E-05  1.0000E-05  1.0000E-05  1.0000E-05  1.0000E-05  1.0000E-05  1.0000E-05  1.0000E-05
       1.0000E-05  1.0000E-05   0.000       0.000       0.000       0.000       0.000       0.000       0.000       0.000    
        0.000       0.000       0.000       0.000       0.000       0.000       0.000       0.000       0.000       0.000    
        0.000       0.000       0.000       0.000       0.000       0.000    
  72    0.000       0.000       0.000       0.000       0.000       0.000       0.000       0.000       0.000       0.000    
        0.000       0.000       0.000       0.000       0.000       0.000       0.000       0.000       0.000       0.000    
        0.000       0.000       0.000      1.0000E-05  1.0000E-05  1.0000E-05  1.0000E-05  1.0000E-05  1.0000E-05  1.0000E-05
       1.0000E-05  1.0000E-05  1.0000E-05  1.0000E-05  1.0000E-05  1.0000E-05  1.0000E-05  1.0000E-05  1.0000E-05  1.0000E-05
       1.0000E-05  1.0000E-05  1.0000E-05  1.0000E-05  1.0000E-05  1.0000E-05  1.0000E-05  1.0000E-05  1.0000E-05  1.0000E-05
       1.0000E-05  1.0000E-05  1.0000E-05   0.000       0.000       0.000       0.000       0.000       0.000       0.000    
        0.000       0.000       0.000       0.000       0.000       0.000       0.000       0.000       0.000       0.000    
        0.000       0.000       0.000       0.000       0.000       0.000    
  73    0.000       0.000       0.000       0.000       0.000       0.000       0.000       0.000       0.000       0.000    
        0.000       0.000       0.000       0.000       0.000       0.000       0.000       0.000       0.000       0.000    
        0.000       0.000       0.000      1.0000E-05  1.0000E-05  1.0000E-05  1.0000E-05  1.0000E-05  1.0000E-05  1.0000E-05
       1.0000E-05  1.0000E-05  1.0000E-05  1.0000E-05  1.0000E-05  1.0000E-05  1.0000E-05  1.0000E-05  1.0000E-05  1.0000E-05
       1.0000E-05  1.0000E-05  1.0000E-05  1.0000E-05  1.0000E-05  1.0000E-05  1.0000E-05  1.0000E-05  1.0000E-05  1.0000E-05
       1.0000E-05  1.0000E-05   0.000       0.000       0.000       0.000       0.000       0.000       0.000       0.000    
        0.000       0.000       0.000       0.000       0.000       0.000       0.000       0.000       0.000       0.000    
        0.000       0.000       0.000       0.000       0.000       0.000    
  74    0.000       0.000       0.000       0.000       0.000       0.000       0.000       0.000       0.000       0.000    
        0.000       0.000       0.000       0.000       0.000       0.000       0.000       0.000       0.000       0.000    
        0.000       0.000       0.000      1.0000E-05  1.0000E-05  1.0000E-05  1.0000E-05  1.0000E-05  1.0000E-05  1.0000E-05
       1.0000E-05  1.0000E-05  1.0000E-05  1.0000E-05  1.0000E-05  1.0000E-05  1.0000E-05  1.0000E-05  1.0000E-05  1.0000E-05
       1.0000E-05  1.0000E-05  1.0000E-05  1.0000E-05  1.0000E-05  1.0000E-05  1.0000E-05  1.0000E-05  1.0000E-05  1.0000E-05
       1.0000E-05  1.0000E-05   0.000       0.000       0.000       0.000       0.000       0.000       0.000       0.000    
        0.000       0.000       0.000       0.000       0.000       0.000       0.000       0.000       0.000       0.000    
        0.000       0.000       0.000       0.000       0.000       0.000    
  75    0.000       0.000       0.000       0.000       0.000       0.000       0.000       0.000       0.000       0.000    
        0.000       0.000       0.000       0.000       0.000       0.000       0.000       0.000       0.000       0.000    
        0.000       0.000       0.000      1.0000E-05  1.0000E-05  1.0000E-05  1.0000E-05  1.0000E-05  1.0000E-05  1.0000E-05
       1.0000E-05  1.0000E-05  1.0000E-05  1.0000E-05  1.0000E-05  1.0000E-05  1.0000E-05  1.0000E-05  1.0000E-05  1.0000E-05
       1.0000E-05  1.0000E-05  1.0000E-05  1.0000E-05  1.0000E-05  1.0000E-05  1.0000E-05  1.0000E-05  1.0000E-05  1.0000E-05
       1.0000E-05   0.000       0.000       0.000       0.000       0.000       0.000       0.000       0.000       0.000    
        0.000       0.000       0.000       0.000       0.000       0.000       0.000       0.000       0.000       0.000    
        0.000       0.000       0.000       0.000       0.000       0.000    
  76    0.000       0.000       0.000       0.000       0.000       0.000       0.000       0.000       0.000       0.000    
        0.000       0.000       0.000       0.000       0.000       0.000       0.000       0.000       0.000       0.000    
        0.000       0.000       0.000      1.0000E-05  1.0000E-05  1.0000E-05  1.0000E-05  1.0000E-05  1.0000E-05  1.0000E-05
       1.0000E-05  1.0000E-05  1.0000E-05  1.0000E-05  1.0000E-05  1.0000E-05  1.0000E-05  1.0000E-05  1.0000E-05  1.0000E-05
       1.0000E-05  1.0000E-05  1.0000E-05  1.0000E-05  1.0000E-05  1.0000E-05  1.0000E-05  1.0000E-05  1.0000E-05  1.0000E-05
       1.0000E-05   0.000       0.000       0.000       0.000       0.000       0.000       0.000       0.000       0.000    
        0.000       0.000       0.000       0.000       0.000       0.000       0.000       0.000       0.000       0.000    
        0.000       0.000       0.000       0.000       0.000       0.000    
  77    0.000       0.000       0.000       0.000       0.000       0.000       0.000       0.000       0.000       0.000    
        0.000       0.000       0.000       0.000       0.000       0.000       0.000       0.000       0.000       0.000    
        0.000       0.000       0.000      1.0000E-05  1.0000E-05  1.0000E-05  1.0000E-05  1.0000E-05  1.0000E-05  1.0000E-05
       1.0000E-05  1.0000E-05  1.0000E-05  1.0000E-05  1.0000E-05  1.0000E-05  1.0000E-05  1.0000E-05  1.0000E-05  1.0000E-05
       1.0000E-05  1.0000E-05  1.0000E-05  1.0000E-05  1.0000E-05  1.0000E-05  1.0000E-05  1.0000E-05  1.0000E-05  1.0000E-05
        0.000       0.000       0.000       0.000       0.000       0.000       0.000       0.000       0.000       0.000    
        0.000       0.000       0.000       0.000       0.000       0.000       0.000       0.000       0.000       0.000    
        0.000       0.000       0.000       0.000       0.000       0.000    
  78    0.000       0.000       0.000       0.000       0.000       0.000       0.000       0.000       0.000       0.000    
        0.000       0.000       0.000       0.000       0.000       0.000       0.000       0.000       0.000       0.000    
        0.000       0.000       0.000      1.0000E-05  1.0000E-05  1.0000E-05  1.0000E-05  1.0000E-05  1.0000E-05  1.0000E-05
       1.0000E-05  1.0000E-05  1.0000E-05  1.0000E-05  1.0000E-05  1.0000E-05  1.0000E-05  1.0000E-05  1.0000E-05  1.0000E-05
       1.0000E-05  1.0000E-05  1.0000E-05  1.0000E-05  1.0000E-05  1.0000E-05  1.0000E-05  1.0000E-05  1.0000E-05  1.0000E-05
       1.0000E-05   0.000       0.000       0.000       0.000       0.000       0.000       0.000       0.000       0.000    
        0.000       0.000       0.000       0.000       0.000       0.000       0.000       0.000       0.000       0.000    
        0.000       0.000       0.000       0.000       0.000       0.000    
  79    0.000       0.000       0.000       0.000       0.000       0.000       0.000       0.000       0.000       0.000    
        0.000       0.000       0.000       0.000       0.000       0.000       0.000       0.000       0.000       0.000    
        0.000       0.000       0.000      1.0000E-05  1.0000E-05  1.0000E-05  1.0000E-05  1.0000E-05  1.0000E-05  1.0000E-05
       1.0000E-05  1.0000E-05  1.0000E-05  1.0000E-05  1.0000E-05  1.0000E-05  1.0000E-05  1.0000E-05  1.0000E-05  1.0000E-05
       1.0000E-05  1.0000E-05  1.0000E-05  1.0000E-05  1.0000E-05  1.0000E-05  1.0000E-05  1.0000E-05  1.0000E-05  1.0000E-05
       1.0000E-05   0.000       0.000       0.000       0.000       0.000       0.000       0.000       0.000       0.000    
        0.000       0.000       0.000       0.000       0.000       0.000       0.000       0.000       0.000       0.000    
        0.000       0.000       0.000       0.000       0.000       0.000    
  80    0.000       0.000       0.000       0.000       0.000       0.000       0.000       0.000       0.000       0.000    
        0.000       0.000       0.000       0.000       0.000       0.000       0.000       0.000       0.000       0.000    
        0.000       0.000       0.000      1.0000E-05  1.0000E-05  1.0000E-05  1.0000E-05  1.0000E-05  1.0000E-05  1.0000E-05
       1.0000E-05  1.0000E-05  1.0000E-05  1.0000E-05  1.0000E-05  1.0000E-05  1.0000E-05  1.0000E-05  1.0000E-05  1.0000E-05
       1.0000E-05  1.0000E-05  1.0000E-05  1.0000E-05  1.0000E-05  1.0000E-05  1.0000E-05  1.0000E-05  1.0000E-05  1.0000E-05
       1.0000E-05  1.0000E-05   0.000       0.000       0.000       0.000       0.000       0.000       0.000       0.000    
        0.000       0.000       0.000       0.000       0.000       0.000       0.000       0.000       0.000       0.000    
        0.000       0.000       0.000       0.000       0.000       0.000    
  81    0.000       0.000       0.000       0.000       0.000       0.000       0.000       0.000       0.000       0.000    
        0.000       0.000       0.000       0.000       0.000       0.000       0.000       0.000       0.000       0.000    
        0.000       0.000       0.000       0.000      1.0000E-05  1.0000E-05  1.0000E-05  1.0000E-05  1.0000E-05  1.0000E-05
       1.0000E-05  1.0000E-05  1.0000E-05  1.0000E-05  1.0000E-05  1.0000E-05  1.0000E-05  1.0000E-05  1.0000E-05  1.0000E-05
       1.0000E-05  1.0000E-05  1.0000E-05  1.0000E-05  1.0000E-05  1.0000E-05  1.0000E-05  1.0000E-05  1.0000E-05  1.0000E-05
       1.0000E-05  1.0000E-05  1.0000E-05   0.000       0.000       0.000       0.000       0.000       0.000       0.000    
        0.000       0.000       0.000       0.000       0.000       0.000       0.000       0.000       0.000       0.000    
        0.000       0.000       0.000       0.000       0.000       0.000    
  82    0.000       0.000       0.000       0.000       0.000       0.000       0.000       0.000       0.000       0.000    
        0.000       0.000       0.000       0.000       0.000       0.000       0.000       0.000       0.000       0.000    
        0.000       0.000       0.000       0.000      1.0000E-05  1.0000E-05  1.0000E-05  1.0000E-05  1.0000E-05  1.0000E-05
       1.0000E-05  1.0000E-05  1.0000E-05  1.0000E-05  1.0000E-05  1.0000E-05  1.0000E-05  1.0000E-05  1.0000E-05  1.0000E-05
       1.0000E-05  1.0000E-05  1.0000E-05  1.0000E-05  1.0000E-05  1.0000E-05  1.0000E-05  1.0000E-05  1.0000E-05  1.0000E-05
       1.0000E-05  1.0000E-05  1.0000E-05   0.000       0.000       0.000       0.000       0.000       0.000       0.000    
        0.000       0.000       0.000       0.000       0.000       0.000       0.000       0.000       0.000       0.000    
        0.000       0.000       0.000       0.000       0.000       0.000    
  83    0.000       0.000       0.000       0.000       0.000       0.000       0.000       0.000       0.000       0.000    
        0.000       0.000       0.000       0.000       0.000       0.000       0.000       0.000       0.000       0.000    
        0.000       0.000       0.000       0.000      1.0000E-05  1.0000E-05  1.0000E-05  1.0000E-05  1.0000E-05  1.0000E-05
       1.0000E-05  1.0000E-05  1.0000E-05  1.0000E-05  1.0000E-05  1.0000E-05  1.0000E-05  1.0000E-05  1.0000E-05  1.0000E-05
       1.0000E-05  1.0000E-05  1.0000E-05  1.0000E-05  1.0000E-05  1.0000E-05  1.0000E-05  1.0000E-05  1.0000E-05  1.0000E-05
       1.0000E-05  1.0000E-05  1.0000E-05   0.000       0.000       0.000       0.000       0.000       0.000       0.000    
        0.000       0.000       0.000       0.000       0.000       0.000       0.000       0.000       0.000       0.000    
        0.000       0.000       0.000       0.000       0.000       0.000    
  84    0.000       0.000       0.000       0.000       0.000       0.000       0.000       0.000       0.000       0.000    
        0.000       0.000       0.000       0.000       0.000       0.000       0.000       0.000       0.000       0.000    
        0.000       0.000       0.000       0.000      1.0000E-05  1.0000E-05  1.0000E-05  1.0000E-05  1.0000E-05  1.0000E-05
       1.0000E-05  1.0000E-05  1.0000E-05  1.0000E-05  1.0000E-05  1.0000E-05  1.0000E-05  1.0000E-05  1.0000E-05  1.0000E-05
       1.0000E-05  1.0000E-05  1.0000E-05  1.0000E-05  1.0000E-05  1.0000E-05  1.0000E-05  1.0000E-05  1.0000E-05  1.0000E-05
       1.0000E-05  1.0000E-05   0.000       0.000       0.000       0.000       0.000       0.000       0.000       0.000    
        0.000       0.000       0.000       0.000       0.000       0.000       0.000       0.000       0.000       0.000    
        0.000       0.000       0.000       0.000       0.000       0.000    
  85    0.000       0.000       0.000       0.000       0.000       0.000       0.000       0.000       0.000       0.000    
        0.000       0.000       0.000       0.000       0.000       0.000       0.000       0.000       0.000       0.000    
        0.000       0.000       0.000       0.000      1.0000E-05  1.0000E-05  1.0000E-05  1.0000E-05  1.0000E-05  1.0000E-05
       1.0000E-05  1.0000E-05  1.0000E-05  1.0000E-05  1.0000E-05  1.0000E-05  1.0000E-05  1.0000E-05  1.0000E-05  1.0000E-05
       1.0000E-05  1.0000E-05  1.0000E-05  1.0000E-05  1.0000E-05  1.0000E-05  1.0000E-05  1.0000E-05  1.0000E-05  1.0000E-05
       1.0000E-05  1.0000E-05   0.000       0.000       0.000       0.000       0.000       0.000       0.000       0.000    
        0.000       0.000       0.000       0.000       0.000       0.000       0.000       0.000       0.000       0.000    
        0.000       0.000       0.000       0.000       0.000       0.000    
  86    0.000       0.000       0.000       0.000       0.000       0.000       0.000       0.000       0.000       0.000    
        0.000       0.000       0.000       0.000       0.000       0.000       0.000       0.000       0.000       0.000    
        0.000       0.000       0.000       0.000      1.0000E-05  1.0000E-05  1.0000E-05  1.0000E-05  1.0000E-05  1.0000E-05
       1.0000E-05  1.0000E-05  1.0000E-05  1.0000E-05  1.0000E-05  1.0000E-05  1.0000E-05  1.0000E-05  1.0000E-05  1.0000E-05
       1.0000E-05  1.0000E-05  1.0000E-05  1.0000E-05  1.0000E-05  1.0000E-05  1.0000E-05  1.0000E-05  1.0000E-05  1.0000E-05
       1.0000E-05  1.0000E-05   0.000       0.000       0.000       0.000       0.000       0.000       0.000       0.000    
        0.000       0.000       0.000       0.000       0.000       0.000       0.000       0.000       0.000       0.000    
        0.000       0.000       0.000       0.000       0.000       0.000    
  87    0.000       0.000       0.000       0.000       0.000       0.000       0.000       0.000       0.000       0.000    
        0.000       0.000       0.000       0.000       0.000       0.000       0.000       0.000       0.000       0.000    
        0.000       0.000       0.000       0.000      1.0000E-05  1.0000E-05  1.0000E-05  1.0000E-05  1.0000E-05  1.0000E-05
       1.0000E-05  1.0000E-05  1.0000E-05  1.0000E-05  1.0000E-05  1.0000E-05  1.0000E-05  1.0000E-05  1.0000E-05  1.0000E-05
       1.0000E-05  1.0000E-05  1.0000E-05  1.0000E-05  1.0000E-05  1.0000E-05  1.0000E-05  1.0000E-05  1.0000E-05  1.0000E-05
       1.0000E-05  1.0000E-05   0.000       0.000       0.000       0.000       0.000       0.000       0.000       0.000    
        0.000       0.000       0.000       0.000       0.000       0.000       0.000       0.000       0.000       0.000    
        0.000       0.000       0.000       0.000       0.000       0.000    
  88    0.000       0.000       0.000       0.000       0.000       0.000       0.000       0.000       0.000       0.000    
        0.000       0.000       0.000       0.000       0.000       0.000       0.000       0.000       0.000       0.000    
        0.000       0.000       0.000       0.000      1.0000E-05  1.0000E-05  1.0000E-05  1.0000E-05  1.0000E-05  1.0000E-05
       1.0000E-05  1.0000E-05  1.0000E-05  1.0000E-05  1.0000E-05  1.0000E-05  1.0000E-05  1.0000E-05  1.0000E-05  1.0000E-05
       1.0000E-05  1.0000E-05  1.0000E-05  1.0000E-05  1.0000E-05  1.0000E-05  1.0000E-05  1.0000E-05  1.0000E-05  1.0000E-05
       1.0000E-05   0.000       0.000       0.000       0.000       0.000       0.000       0.000       0.000       0.000    
        0.000       0.000       0.000       0.000       0.000       0.000       0.000       0.000       0.000       0.000    
        0.000       0.000       0.000       0.000       0.000       0.000    
  89    0.000       0.000       0.000       0.000       0.000       0.000       0.000       0.000       0.000       0.000    
        0.000       0.000       0.000       0.000       0.000       0.000       0.000       0.000       0.000       0.000    
        0.000       0.000       0.000       0.000      1.0000E-05  1.0000E-05  1.0000E-05  1.0000E-05  1.0000E-05  1.0000E-05
       1.0000E-05  1.0000E-05  1.0000E-05  1.0000E-05  1.0000E-05  1.0000E-05  1.0000E-05  1.0000E-05  1.0000E-05  1.0000E-05
       1.0000E-05  1.0000E-05  1.0000E-05  1.0000E-05  1.0000E-05  1.0000E-05  1.0000E-05  1.0000E-05  1.0000E-05  1.0000E-05
        0.000       0.000       0.000       0.000       0.000       0.000       0.000       0.000       0.000       0.000    
        0.000       0.000       0.000       0.000       0.000       0.000       0.000       0.000       0.000       0.000    
        0.000       0.000       0.000       0.000       0.000       0.000    
  90    0.000       0.000       0.000       0.000       0.000       0.000       0.000       0.000       0.000       0.000    
        0.000       0.000       0.000       0.000       0.000       0.000       0.000       0.000       0.000       0.000    
        0.000       0.000       0.000       0.000       0.000      1.0000E-05  1.0000E-05  1.0000E-05  1.0000E-05  1.0000E-05
       1.0000E-05  1.0000E-05  1.0000E-05  1.0000E-05  1.0000E-05  1.0000E-05  1.0000E-05  1.0000E-05  1.0000E-05  1.0000E-05
       1.0000E-05  1.0000E-05  1.0000E-05  1.0000E-05  1.0000E-05  1.0000E-05  1.0000E-05  1.0000E-05  1.0000E-05   0.000    
        0.000       0.000       0.000       0.000       0.000       0.000       0.000       0.000       0.000       0.000    
        0.000       0.000       0.000       0.000       0.000       0.000       0.000       0.000       0.000       0.000    
        0.000       0.000       0.000       0.000       0.000       0.000    
  91    0.000       0.000       0.000       0.000       0.000       0.000       0.000       0.000       0.000       0.000    
        0.000       0.000       0.000       0.000       0.000       0.000       0.000       0.000       0.000       0.000    
        0.000       0.000       0.000       0.000      1.0000E-05  1.0000E-05  1.0000E-05  1.0000E-05  1.0000E-05  1.0000E-05
       1.0000E-05  1.0000E-05  1.0000E-05  1.0000E-05  1.0000E-05  1.0000E-05  1.0000E-05  1.0000E-05  1.0000E-05  1.0000E-05
       1.0000E-05  1.0000E-05  1.0000E-05  1.0000E-05  1.0000E-05  1.0000E-05  1.0000E-05  1.0000E-05  1.0000E-05   0.000    
        0.000       0.000       0.000       0.000       0.000       0.000       0.000       0.000       0.000       0.000    
        0.000       0.000       0.000       0.000       0.000       0.000       0.000       0.000       0.000       0.000    
        0.000       0.000       0.000       0.000       0.000       0.000    
  92    0.000       0.000       0.000       0.000       0.000       0.000       0.000       0.000       0.000       0.000    
        0.000       0.000       0.000       0.000       0.000       0.000       0.000       0.000       0.000       0.000    
        0.000       0.000       0.000       0.000      1.0000E-05  1.0000E-05  1.0000E-05  1.0000E-05  1.0000E-05  1.0000E-05
       1.0000E-05  1.0000E-05  1.0000E-05  1.0000E-05  1.0000E-05  1.0000E-05  1.0000E-05  1.0000E-05  1.0000E-05  1.0000E-05
       1.0000E-05  1.0000E-05  1.0000E-05  1.0000E-05  1.0000E-05  1.0000E-05  1.0000E-05  1.0000E-05   0.000       0.000    
        0.000       0.000       0.000       0.000       0.000       0.000       0.000       0.000       0.000       0.000    
        0.000       0.000       0.000       0.000       0.000       0.000       0.000       0.000       0.000       0.000    
        0.000       0.000       0.000       0.000       0.000       0.000    
  93    0.000       0.000       0.000       0.000       0.000       0.000       0.000       0.000       0.000       0.000    
        0.000       0.000       0.000       0.000       0.000       0.000       0.000       0.000       0.000       0.000    
        0.000       0.000       0.000       0.000       0.000      1.0000E-05  1.0000E-05  1.0000E-05  1.0000E-05  1.0000E-05
       1.0000E-05  1.0000E-05  1.0000E-05  1.0000E-05  1.0000E-05  1.0000E-05  1.0000E-05  1.0000E-05  1.0000E-05  1.0000E-05
       1.0000E-05  1.0000E-05  1.0000E-05  1.0000E-05  1.0000E-05  1.0000E-05  1.0000E-05  1.0000E-05   0.000       0.000    
        0.000       0.000       0.000       0.000       0.000       0.000       0.000       0.000       0.000       0.000    
        0.000       0.000       0.000       0.000       0.000       0.000       0.000       0.000       0.000       0.000    
        0.000       0.000       0.000       0.000       0.000       0.000    
  94    0.000       0.000       0.000       0.000       0.000       0.000       0.000       0.000       0.000       0.000    
        0.000       0.000       0.000       0.000       0.000       0.000       0.000       0.000       0.000       0.000    
        0.000       0.000       0.000       0.000       0.000      1.0000E-05  1.0000E-05  1.0000E-05  1.0000E-05  1.0000E-05
       1.0000E-05  1.0000E-05  1.0000E-05  1.0000E-05  1.0000E-05  1.0000E-05  1.0000E-05  1.0000E-05  1.0000E-05  1.0000E-05
       1.0000E-05  1.0000E-05  1.0000E-05  1.0000E-05  1.0000E-05  1.0000E-05  1.0000E-05  1.0000E-05  1.0000E-05   0.000    
        0.000       0.000       0.000       0.000       0.000       0.000       0.000       0.000       0.000       0.000    
        0.000       0.000       0.000       0.000       0.000       0.000       0.000       0.000       0.000       0.000    
        0.000       0.000       0.000       0.000       0.000       0.000    
  95    0.000       0.000       0.000       0.000       0.000       0.000       0.000       0.000       0.000       0.000    
        0.000       0.000       0.000       0.000       0.000       0.000       0.000       0.000       0.000       0.000    
        0.000       0.000       0.000       0.000       0.000      1.0000E-05  1.0000E-05  1.0000E-05  1.0000E-05  1.0000E-05
       1.0000E-05  1.0000E-05  1.0000E-05  1.0000E-05  1.0000E-05  1.0000E-05  1.0000E-05  1.0000E-05  1.0000E-05  1.0000E-05
       1.0000E-05  1.0000E-05  1.0000E-05  1.0000E-05  1.0000E-05  1.0000E-05  1.0000E-05  1.0000E-05  1.0000E-05   0.000    
        0.000       0.000       0.000       0.000       0.000       0.000       0.000       0.000       0.000       0.000    
        0.000       0.000       0.000       0.000       0.000       0.000       0.000       0.000       0.000       0.000    
        0.000       0.000       0.000       0.000       0.000       0.000    
  96    0.000       0.000       0.000       0.000       0.000       0.000       0.000       0.000       0.000       0.000    
        0.000       0.000       0.000       0.000       0.000       0.000       0.000       0.000       0.000       0.000    
        0.000       0.000       0.000       0.000       0.000      1.0000E-05  1.0000E-05  1.0000E-05  1.0000E-05  1.0000E-05
       1.0000E-05  1.0000E-05  1.0000E-05  1.0000E-05  1.0000E-05  1.0000E-05  1.0000E-05  1.0000E-05  1.0000E-05  1.0000E-05
       1.0000E-05  1.0000E-05  1.0000E-05  1.0000E-05  1.0000E-05  1.0000E-05  1.0000E-05  1.0000E-05   0.000       0.000    
        0.000       0.000       0.000       0.000       0.000       0.000       0.000       0.000       0.000       0.000    
        0.000       0.000       0.000       0.000       0.000       0.000       0.000       0.000       0.000       0.000    
        0.000       0.000       0.000       0.000       0.000       0.000    
  97    0.000       0.000       0.000       0.000       0.000       0.000       0.000       0.000       0.000       0.000    
        0.000       0.000       0.000       0.000       0.000       0.000       0.000       0.000       0.000       0.000    
        0.000       0.000       0.000       0.000       0.000      1.0000E-05  1.0000E-05  1.0000E-05  1.0000E-05  1.0000E-05
       1.0000E-05  1.0000E-05  1.0000E-05  1.0000E-05  1.0000E-05  1.0000E-05  1.0000E-05  1.0000E-05  1.0000E-05  1.0000E-05
       1.0000E-05  1.0000E-05  1.0000E-05  1.0000E-05   0.000      1.0000E-05  1.0000E-05  1.0000E-05   0.000       0.000    
        0.000       0.000       0.000       0.000       0.000       0.000       0.000       0.000       0.000       0.000    
        0.000       0.000       0.000       0.000       0.000       0.000       0.000       0.000       0.000       0.000    
        0.000       0.000       0.000       0.000       0.000       0.000    
  98    0.000       0.000       0.000       0.000       0.000       0.000       0.000       0.000       0.000       0.000    
        0.000       0.000       0.000       0.000       0.000       0.000       0.000       0.000       0.000       0.000    
        0.000       0.000       0.000       0.000      1.0000E-05  1.0000E-05  1.0000E-05  1.0000E-05  1.0000E-05  1.0000E-05
       1.0000E-05  1.0000E-05  1.0000E-05  1.0000E-05  1.0000E-05  1.0000E-05  1.0000E-05  1.0000E-05  1.0000E-05  1.0000E-05
       1.0000E-05   0.000       0.000       0.000       0.000       0.000       0.000       0.000       0.000       0.000    
        0.000       0.000       0.000       0.000       0.000       0.000       0.000       0.000       0.000       0.000    
        0.000       0.000       0.000       0.000       0.000       0.000       0.000       0.000       0.000       0.000    
        0.000       0.000       0.000       0.000       0.000       0.000    
  99    0.000       0.000       0.000       0.000       0.000       0.000       0.000       0.000       0.000       0.000    
        0.000       0.000       0.000       0.000       0.000       0.000       0.000       0.000       0.000       0.000    
        0.000       0.000       0.000       0.000      1.0000E-05  1.0000E-05  1.0000E-05  1.0000E-05  1.0000E-05  1.0000E-05
       1.0000E-05  1.0000E-05  1.0000E-05  1.0000E-05  1.0000E-05  1.0000E-05  1.0000E-05  1.0000E-05  1.0000E-05  1.0000E-05
       1.0000E-05  1.0000E-05   0.000       0.000       0.000       0.000       0.000       0.000       0.000       0.000    
        0.000       0.000       0.000       0.000       0.000       0.000       0.000       0.000       0.000       0.000    
        0.000       0.000       0.000       0.000       0.000       0.000       0.000       0.000       0.000       0.000    
        0.000       0.000       0.000       0.000       0.000       0.000    
 100    0.000       0.000       0.000       0.000       0.000       0.000       0.000       0.000       0.000       0.000    
        0.000       0.000       0.000       0.000       0.000       0.000       0.000       0.000       0.000       0.000    
        0.000       0.000       0.000       0.000      1.0000E-05  1.0000E-05  1.0000E-05  1.0000E-05  1.0000E-05  1.0000E-05
       1.0000E-05  1.0000E-05  1.0000E-05  1.0000E-05  1.0000E-05  1.0000E-05  1.0000E-05  1.0000E-05  1.0000E-05  1.0000E-05
       1.0000E-05  1.0000E-05   0.000       0.000       0.000       0.000       0.000       0.000       0.000       0.000    
        0.000       0.000       0.000       0.000       0.000       0.000       0.000       0.000       0.000       0.000    
        0.000       0.000       0.000       0.000       0.000       0.000       0.000       0.000       0.000       0.000    
        0.000       0.000       0.000       0.000       0.000       0.000    
 101    0.000       0.000       0.000       0.000       0.000       0.000       0.000       0.000       0.000       0.000    
        0.000       0.000       0.000       0.000       0.000       0.000       0.000       0.000       0.000       0.000    
        0.000       0.000       0.000      1.0000E-05  1.0000E-05  1.0000E-05  1.0000E-05  1.0000E-05  1.0000E-05  1.0000E-05
       1.0000E-05  1.0000E-05  1.0000E-05  1.0000E-05  1.0000E-05  1.0000E-05  1.0000E-05  1.0000E-05  1.0000E-05  1.0000E-05
       1.0000E-05  1.0000E-05   0.000       0.000       0.000       0.000       0.000       0.000       0.000       0.000    
        0.000       0.000       0.000       0.000       0.000       0.000       0.000       0.000       0.000       0.000    
        0.000       0.000       0.000       0.000       0.000       0.000       0.000       0.000       0.000       0.000    
        0.000       0.000       0.000       0.000       0.000       0.000    
 102    0.000       0.000       0.000       0.000       0.000       0.000       0.000       0.000       0.000       0.000    
        0.000       0.000       0.000       0.000       0.000       0.000       0.000       0.000       0.000       0.000    
        0.000       0.000       0.000      1.0000E-05  1.0000E-05  1.0000E-05  1.0000E-05  1.0000E-05  1.0000E-05  1.0000E-05
       1.0000E-05  1.0000E-05  1.0000E-05  1.0000E-05  1.0000E-05  1.0000E-05  1.0000E-05  1.0000E-05  1.0000E-05  1.0000E-05
       1.0000E-05   0.000       0.000       0.000       0.000       0.000       0.000       0.000       0.000       0.000    
        0.000       0.000       0.000       0.000       0.000       0.000       0.000       0.000       0.000       0.000    
        0.000       0.000       0.000       0.000       0.000       0.000       0.000       0.000       0.000       0.000    
        0.000       0.000       0.000       0.000       0.000       0.000    
 103    0.000       0.000       0.000       0.000       0.000       0.000       0.000       0.000       0.000       0.000    
        0.000       0.000       0.000       0.000       0.000       0.000       0.000       0.000       0.000       0.000    
        0.000       0.000      1.0000E-05  1.0000E-05  1.0000E-05  1.0000E-05  1.0000E-05  1.0000E-05  1.0000E-05  1.0000E-05
       1.0000E-05  1.0000E-05  1.0000E-05  1.0000E-05  1.0000E-05  1.0000E-05  1.0000E-05  1.0000E-05  1.0000E-05  1.0000E-05
       1.0000E-05   0.000       0.000       0.000       0.000       0.000       0.000       0.000       0.000       0.000    
        0.000       0.000       0.000       0.000       0.000       0.000       0.000       0.000       0.000       0.000    
        0.000       0.000       0.000       0.000       0.000       0.000       0.000       0.000       0.000       0.000    
        0.000       0.000       0.000       0.000       0.000       0.000    
 104    0.000       0.000       0.000       0.000       0.000       0.000       0.000       0.000       0.000       0.000    
        0.000       0.000       0.000       0.000       0.000       0.000       0.000       0.000       0.000       0.000    
        0.000      1.0000E-05  1.0000E-05  1.0000E-05  1.0000E-05  1.0000E-05  1.0000E-05  1.0000E-05  1.0000E-05  1.0000E-05
       1.0000E-05  1.0000E-05  1.0000E-05  1.0000E-05  1.0000E-05  1.0000E-05  1.0000E-05  1.0000E-05  1.0000E-05  1.0000E-05
       1.0000E-05   0.000       0.000       0.000       0.000       0.000       0.000       0.000       0.000       0.000    
        0.000       0.000       0.000       0.000       0.000       0.000       0.000       0.000       0.000       0.000    
        0.000       0.000       0.000       0.000       0.000       0.000       0.000       0.000       0.000       0.000    
        0.000       0.000       0.000       0.000       0.000       0.000    
 105    0.000       0.000       0.000       0.000       0.000       0.000       0.000       0.000       0.000       0.000    
        0.000       0.000       0.000       0.000       0.000       0.000       0.000       0.000       0.000       0.000    
        0.000      1.0000E-05  1.0000E-05  1.0000E-05  1.0000E-05  1.0000E-05  1.0000E-05  1.0000E-05  1.0000E-05  1.0000E-05
       1.0000E-05  1.0000E-05  1.0000E-05  1.0000E-05  1.0000E-05  1.0000E-05  1.0000E-05  1.0000E-05  1.0000E-05  1.0000E-05
       1.0000E-05   0.000       0.000       0.000       0.000       0.000       0.000       0.000       0.000       0.000    
        0.000       0.000       0.000       0.000       0.000       0.000       0.000       0.000       0.000       0.000    
        0.000       0.000       0.000       0.000       0.000       0.000       0.000       0.000       0.000       0.000    
        0.000       0.000       0.000       0.000       0.000       0.000    
 106    0.000       0.000       0.000       0.000       0.000       0.000       0.000       0.000       0.000       0.000    
        0.000       0.000       0.000       0.000       0.000       0.000       0.000       0.000       0.000       0.000    
       1.0000E-05  1.0000E-05  1.0000E-05  1.0000E-05  1.0000E-05  1.0000E-05  1.0000E-05  1.0000E-05  1.0000E-05  1.0000E-05
       1.0000E-05  1.0000E-05  1.0000E-05  1.0000E-05  1.0000E-05  1.0000E-05  1.0000E-05  1.0000E-05  1.0000E-05  1.0000E-05
       1.0000E-05   0.000       0.000       0.000       0.000       0.000       0.000       0.000       0.000       0.000    
        0.000       0.000       0.000       0.000       0.000       0.000       0.000       0.000       0.000       0.000    
        0.000       0.000       0.000       0.000       0.000       0.000       0.000       0.000       0.000       0.000    
        0.000       0.000       0.000       0.000       0.000       0.000    
 107    0.000       0.000       0.000       0.000       0.000       0.000       0.000       0.000       0.000       0.000    
        0.000       0.000       0.000       0.000       0.000       0.000       0.000       0.000       0.000       0.000    
       1.0000E-05  1.0000E-05  1.0000E-05  1.0000E-05  1.0000E-05  1.0000E-05  1.0000E-05  1.0000E-05  1.0000E-05  1.0000E-05
       1.0000E-05  1.0000E-05  1.0000E-05  1.0000E-05  1.0000E-05  1.0000E-05  1.0000E-05  1.0000E-05  1.0000E-05  1.0000E-05
       1.0000E-05   0.000       0.000       0.000       0.000       0.000       0.000       0.000       0.000       0.000    
        0.000       0.000       0.000       0.000       0.000       0.000       0.000       0.000       0.000       0.000    
        0.000       0.000       0.000       0.000       0.000       0.000       0.000       0.000       0.000       0.000    
        0.000       0.000       0.000       0.000       0.000       0.000    
 108    0.000       0.000       0.000       0.000       0.000       0.000       0.000       0.000       0.000       0.000    
        0.000       0.000       0.000       0.000       0.000       0.000       0.000       0.000       0.000      1.0000E-05
       1.0000E-05  1.0000E-05  1.0000E-05  1.0000E-05  1.0000E-05  1.0000E-05  1.0000E-05  1.0000E-05  1.0000E-05  1.0000E-05
       1.0000E-05  1.0000E-05  1.0000E-05  1.0000E-05  1.0000E-05  1.0000E-05  1.0000E-05  1.0000E-05  1.0000E-05  1.0000E-05
       1.0000E-05   0.000       0.000       0.000       0.000       0.000       0.000       0.000       0.000       0.000    
        0.000       0.000       0.000       0.000       0.000       0.000       0.000       0.000       0.000       0.000    
        0.000       0.000       0.000       0.000       0.000       0.000       0.000       0.000       0.000       0.000    
        0.000       0.000       0.000       0.000       0.000       0.000    
 109    0.000       0.000       0.000       0.000       0.000       0.000       0.000       0.000       0.000       0.000    
        0.000       0.000       0.000       0.000       0.000       0.000       0.000       0.000       0.000      1.0000E-05
       1.0000E-05  1.0000E-05  1.0000E-05  1.0000E-05  1.0000E-05  1.0000E-05  1.0000E-05  1.0000E-05  1.0000E-05  1.0000E-05
       1.0000E-05  1.0000E-05  1.0000E-05  1.0000E-05  1.0000E-05  1.0000E-05  1.0000E-05  1.0000E-05  1.0000E-05  1.0000E-05
       1.0000E-05   0.000       0.000       0.000       0.000       0.000       0.000       0.000       0.000       0.000    
        0.000       0.000       0.000       0.000       0.000       0.000       0.000       0.000       0.000       0.000    
        0.000       0.000       0.000       0.000       0.000       0.000       0.000       0.000       0.000       0.000    
        0.000       0.000       0.000       0.000       0.000       0.000    
 110    0.000       0.000       0.000       0.000       0.000       0.000       0.000       0.000       0.000       0.000    
        0.000       0.000       0.000       0.000       0.000       0.000       0.000       0.000      1.0000E-05  1.0000E-05
       1.0000E-05  1.0000E-05  1.0000E-05  1.0000E-05  1.0000E-05  1.0000E-05  1.0000E-05  1.0000E-05  1.0000E-05  1.0000E-05
       1.0000E-05  1.0000E-05  1.0000E-05  1.0000E-05  1.0000E-05  1.0000E-05  1.0000E-05  1.0000E-05  1.0000E-05  1.0000E-05
       1.0000E-05   0.000       0.000       0.000       0.000       0.000       0.000       0.000       0.000       0.000    
        0.000       0.000       0.000       0.000       0.000       0.000       0.000       0.000       0.000       0.000    
        0.000       0.000       0.000       0.000       0.000       0.000       0.000       0.000       0.000       0.000    
        0.000       0.000       0.000       0.000       0.000       0.000    
 111    0.000       0.000       0.000       0.000       0.000       0.000       0.000       0.000       0.000       0.000    
        0.000       0.000       0.000       0.000       0.000      1.0000E-05  1.0000E-05  1.0000E-05  1.0000E-05  1.0000E-05
       1.0000E-05  1.0000E-05  1.0000E-05  1.0000E-05  1.0000E-05  1.0000E-05  1.0000E-05  1.0000E-05  1.0000E-05  1.0000E-05
       1.0000E-05  1.0000E-05  1.0000E-05  1.0000E-05  1.0000E-05  1.0000E-05  1.0000E-05  1.0000E-05  1.0000E-05   0.000    
        0.000       0.000       0.000       0.000       0.000       0.000       0.000       0.000       0.000       0.000    
        0.000       0.000       0.000       0.000       0.000       0.000       0.000       0.000       0.000       0.000    
        0.000       0.000       0.000       0.000       0.000       0.000       0.000       0.000       0.000       0.000    
        0.000       0.000       0.000       0.000       0.000       0.000    
 112    0.000       0.000       0.000       0.000       0.000       0.000       0.000       0.000       0.000       0.000    
        0.000       0.000       0.000       0.000      1.0000E-05  1.0000E-05  1.0000E-05  1.0000E-05  1.0000E-05  1.0000E-05
       1.0000E-05  1.0000E-05  1.0000E-05  1.0000E-05  1.0000E-05  1.0000E-05  1.0000E-05  1.0000E-05  1.0000E-05  1.0000E-05
       1.0000E-05  1.0000E-05  1.0000E-05  1.0000E-05  1.0000E-05  1.0000E-05  1.0000E-05  1.0000E-05   0.000       0.000    
        0.000       0.000       0.000       0.000       0.000       0.000       0.000       0.000       0.000       0.000    
        0.000       0.000       0.000       0.000       0.000       0.000       0.000       0.000       0.000       0.000    
        0.000       0.000       0.000       0.000       0.000       0.000       0.000       0.000       0.000       0.000    
        0.000       0.000       0.000       0.000       0.000       0.000    
 113    0.000       0.000       0.000       0.000       0.000       0.000       0.000       0.000       0.000       0.000    
        0.000       0.000       0.000      1.0000E-05  1.0000E-05  1.0000E-05  1.0000E-05  1.0000E-05  1.0000E-05  1.0000E-05
       1.0000E-05  1.0000E-05  1.0000E-05  1.0000E-05  1.0000E-05  1.0000E-05  1.0000E-05  1.0000E-05  1.0000E-05  1.0000E-05
       1.0000E-05  1.0000E-05  1.0000E-05  1.0000E-05  1.0000E-05  1.0000E-05  1.0000E-05  1.0000E-05   0.000       0.000    
        0.000       0.000       0.000       0.000       0.000       0.000       0.000       0.000       0.000       0.000    
        0.000       0.000       0.000       0.000       0.000       0.000       0.000       0.000       0.000       0.000    
        0.000       0.000       0.000       0.000       0.000       0.000       0.000       0.000       0.000       0.000    
        0.000       0.000       0.000       0.000       0.000       0.000    
 114    0.000       0.000       0.000       0.000       0.000       0.000       0.000       0.000       0.000       0.000    
        0.000       0.000      1.0000E-05  1.0000E-05  1.0000E-05  1.0000E-05  1.0000E-05  1.0000E-05  1.0000E-05  1.0000E-05
       1.0000E-05  1.0000E-05  1.0000E-05  1.0000E-05  1.0000E-05  1.0000E-05  1.0000E-05  1.0000E-05  1.0000E-05  1.0000E-05
       1.0000E-05  1.0000E-05  1.0000E-05  1.0000E-05  1.0000E-05  1.0000E-05  1.0000E-05  1.0000E-05   0.000       0.000    
        0.000       0.000       0.000       0.000       0.000       0.000       0.000       0.000       0.000       0.000    
        0.000       0.000       0.000       0.000       0.000       0.000       0.000       0.000       0.000       0.000    
        0.000       0.000       0.000       0.000       0.000       0.000       0.000       0.000       0.000       0.000    
        0.000       0.000       0.000       0.000       0.000       0.000    
 115    0.000       0.000       0.000       0.000       0.000       0.000       0.000       0.000       0.000       0.000    
        0.000      1.0000E-05  1.0000E-05  1.0000E-05  1.0000E-05  1.0000E-05  1.0000E-05  1.0000E-05  1.0000E-05  1.0000E-05
       1.0000E-05  1.0000E-05  1.0000E-05  1.0000E-05  1.0000E-05  1.0000E-05  1.0000E-05  1.0000E-05  1.0000E-05  1.0000E-05
       1.0000E-05  1.0000E-05  1.0000E-05  1.0000E-05  1.0000E-05  1.0000E-05  1.0000E-05   0.000       0.000       0.000    
        0.000       0.000       0.000       0.000       0.000       0.000       0.000       0.000       0.000       0.000    
        0.000       0.000       0.000       0.000       0.000       0.000       0.000       0.000       0.000       0.000    
        0.000       0.000       0.000       0.000       0.000       0.000       0.000       0.000       0.000       0.000    
        0.000       0.000       0.000       0.000       0.000       0.000    
 116    0.000       0.000       0.000       0.000       0.000       0.000       0.000       0.000       0.000       0.000    
        0.000      1.0000E-05  1.0000E-05  1.0000E-05  1.0000E-05  1.0000E-05  1.0000E-05  1.0000E-05  1.0000E-05  1.0000E-05
       1.0000E-05  1.0000E-05  1.0000E-05  1.0000E-05  1.0000E-05  1.0000E-05  1.0000E-05  1.0000E-05  1.0000E-05  1.0000E-05
       1.0000E-05  1.0000E-05  1.0000E-05  1.0000E-05  1.0000E-05  1.0000E-05   0.000       0.000       0.000       0.000    
        0.000       0.000       0.000       0.000       0.000       0.000       0.000       0.000       0.000       0.000    
        0.000       0.000       0.000       0.000       0.000       0.000       0.000       0.000       0.000       0.000    
        0.000       0.000       0.000       0.000       0.000       0.000       0.000       0.000       0.000       0.000    
        0.000       0.000       0.000       0.000       0.000       0.000    
 117    0.000       0.000       0.000       0.000       0.000       0.000       0.000       0.000      1.0000E-05  1.0000E-05
       1.0000E-05  1.0000E-05  1.0000E-05  1.0000E-05  1.0000E-05  1.0000E-05  1.0000E-05  1.0000E-05  1.0000E-05  1.0000E-05
       1.0000E-05  1.0000E-05  1.0000E-05  1.0000E-05  1.0000E-05  1.0000E-05  1.0000E-05  1.0000E-05  1.0000E-05  1.0000E-05
       1.0000E-05  1.0000E-05  1.0000E-05  1.0000E-05  1.0000E-05  1.0000E-05   0.000       0.000       0.000       0.000    
        0.000       0.000       0.000       0.000       0.000       0.000       0.000       0.000       0.000       0.000    
        0.000       0.000       0.000       0.000       0.000       0.000       0.000       0.000       0.000       0.000    
        0.000       0.000       0.000       0.000       0.000       0.000       0.000       0.000       0.000       0.000    
        0.000       0.000       0.000       0.000       0.000       0.000    
 118    0.000       0.000       0.000       0.000       0.000       0.000       0.000       0.000      1.0000E-05  1.0000E-05
       1.0000E-05  1.0000E-05  1.0000E-05  1.0000E-05  1.0000E-05  1.0000E-05  1.0000E-05  1.0000E-05  1.0000E-05  1.0000E-05
       1.0000E-05  1.0000E-05  1.0000E-05  1.0000E-05  1.0000E-05  1.0000E-05  1.0000E-05  1.0000E-05  1.0000E-05  1.0000E-05
       1.0000E-05  1.0000E-05  1.0000E-05  1.0000E-05  1.0000E-05  1.0000E-05   0.000       0.000       0.000       0.000    
        0.000       0.000       0.000       0.000       0.000       0.000       0.000       0.000       0.000       0.000    
        0.000       0.000       0.000       0.000       0.000       0.000       0.000       0.000       0.000       0.000    
        0.000       0.000       0.000       0.000       0.000       0.000       0.000       0.000       0.000       0.000    
        0.000       0.000       0.000       0.000       0.000       0.000    
 119    0.000       0.000       0.000       0.000       0.000       0.000       0.000      1.0000E-05  1.0000E-05  1.0000E-05
       1.0000E-05  1.0000E-05  1.0000E-05  1.0000E-05  1.0000E-05  1.0000E-05  1.0000E-05  1.0000E-05  1.0000E-05  1.0000E-05
       1.0000E-05  1.0000E-05  1.0000E-05  1.0000E-05  1.0000E-05  1.0000E-05  1.0000E-05  1.0000E-05  1.0000E-05  1.0000E-05
       1.0000E-05  1.0000E-05  1.0000E-05  1.0000E-05  1.0000E-05  1.0000E-05   0.000       0.000       0.000       0.000    
        0.000       0.000       0.000       0.000       0.000       0.000       0.000       0.000       0.000       0.000    
        0.000       0.000       0.000       0.000       0.000       0.000       0.000       0.000       0.000       0.000    
        0.000       0.000       0.000       0.000       0.000       0.000       0.000       0.000       0.000       0.000    
        0.000       0.000       0.000       0.000       0.000       0.000    
 120    0.000       0.000       0.000       0.000       0.000       0.000       0.000      1.0000E-05  1.0000E-05  1.0000E-05
       1.0000E-05  1.0000E-05  1.0000E-05  1.0000E-05  1.0000E-05  1.0000E-05  1.0000E-05  1.0000E-05  1.0000E-05  1.0000E-05
       1.0000E-05  1.0000E-05  1.0000E-05  1.0000E-05  1.0000E-05  1.0000E-05  1.0000E-05  1.0000E-05  1.0000E-05  1.0000E-05
       1.0000E-05  1.0000E-05  1.0000E-05  1.0000E-05  1.0000E-05  1.0000E-05   0.000       0.000       0.000       0.000    
        0.000       0.000       0.000       0.000       0.000       0.000       0.000       0.000       0.000       0.000    
        0.000       0.000       0.000       0.000       0.000       0.000       0.000       0.000       0.000       0.000    
        0.000       0.000       0.000       0.000       0.000       0.000       0.000       0.000       0.000       0.000    
        0.000       0.000       0.000       0.000       0.000       0.000    
 121    0.000       0.000       0.000       0.000       0.000       0.000       0.000      1.0000E-05  1.0000E-05  1.0000E-05
       1.0000E-05  1.0000E-05  1.0000E-05  1.0000E-05  1.0000E-05  1.0000E-05  1.0000E-05  1.0000E-05  1.0000E-05  1.0000E-05
       1.0000E-05  1.0000E-05  1.0000E-05  1.0000E-05  1.0000E-05  1.0000E-05  1.0000E-05  1.0000E-05  1.0000E-05  1.0000E-05
       1.0000E-05  1.0000E-05  1.0000E-05  1.0000E-05   0.000       0.000       0.000       0.000       0.000       0.000    
        0.000       0.000       0.000       0.000       0.000       0.000       0.000       0.000       0.000       0.000    
        0.000       0.000       0.000       0.000       0.000       0.000       0.000       0.000       0.000       0.000    
        0.000       0.000       0.000       0.000       0.000       0.000       0.000       0.000       0.000       0.000    
        0.000       0.000       0.000       0.000       0.000       0.000    
 122    0.000       0.000       0.000       0.000       0.000      1.0000E-05  1.0000E-05  1.0000E-05  1.0000E-05  1.0000E-05
       1.0000E-05  1.0000E-05  1.0000E-05  1.0000E-05  1.0000E-05  1.0000E-05  1.0000E-05  1.0000E-05  1.0000E-05  1.0000E-05
       1.0000E-05  1.0000E-05  1.0000E-05  1.0000E-05  1.0000E-05  1.0000E-05  1.0000E-05  1.0000E-05  1.0000E-05  1.0000E-05
       1.0000E-05  1.0000E-05  1.0000E-05  1.0000E-05   0.000       0.000       0.000       0.000       0.000       0.000    
        0.000       0.000       0.000       0.000       0.000       0.000       0.000       0.000       0.000       0.000    
        0.000       0.000       0.000       0.000       0.000       0.000       0.000       0.000       0.000       0.000    
        0.000       0.000       0.000       0.000       0.000       0.000       0.000       0.000       0.000       0.000    
        0.000       0.000       0.000       0.000       0.000       0.000    
 123    0.000       0.000       0.000       0.000      1.0000E-05  1.0000E-05  1.0000E-05  1.0000E-05  1.0000E-05  1.0000E-05
       1.0000E-05  1.0000E-05  1.0000E-05  1.0000E-05  1.0000E-05  1.0000E-05  1.0000E-05  1.0000E-05  1.0000E-05  1.0000E-05
       1.0000E-05  1.0000E-05  1.0000E-05  1.0000E-05  1.0000E-05  1.0000E-05  1.0000E-05  1.0000E-05  1.0000E-05  1.0000E-05
       1.0000E-05  1.0000E-05  1.0000E-05  1.0000E-05   0.000       0.000       0.000       0.000       0.000       0.000    
        0.000       0.000       0.000       0.000       0.000       0.000       0.000       0.000       0.000       0.000    
        0.000       0.000       0.000       0.000       0.000       0.000       0.000       0.000       0.000       0.000    
        0.000       0.000       0.000       0.000       0.000       0.000       0.000       0.000       0.000       0.000    
        0.000       0.000       0.000       0.000       0.000       0.000    
 124    0.000       0.000       0.000      1.0000E-05  1.0000E-05  1.0000E-05  1.0000E-05  1.0000E-05  1.0000E-05  1.0000E-05
       1.0000E-05  1.0000E-05  1.0000E-05  1.0000E-05  1.0000E-05  1.0000E-05  1.0000E-05  1.0000E-05  1.0000E-05  1.0000E-05
       1.0000E-05  1.0000E-05  1.0000E-05  1.0000E-05  1.0000E-05  1.0000E-05  1.0000E-05  1.0000E-05  1.0000E-05  1.0000E-05
       1.0000E-05  1.0000E-05   0.000       0.000       0.000       0.000       0.000       0.000       0.000       0.000    
        0.000       0.000       0.000       0.000       0.000       0.000       0.000       0.000       0.000       0.000    
        0.000       0.000       0.000       0.000       0.000       0.000       0.000       0.000       0.000       0.000    
        0.000       0.000       0.000       0.000       0.000       0.000       0.000       0.000       0.000       0.000    
        0.000       0.000       0.000       0.000       0.000       0.000    
 125    0.000      1.0000E-05  1.0000E-05  1.0000E-05  1.0000E-05  1.0000E-05  1.0000E-05  1.0000E-05  1.0000E-05  1.0000E-05
       1.0000E-05  1.0000E-05  1.0000E-05  1.0000E-05  1.0000E-05  1.0000E-05  1.0000E-05  1.0000E-05  1.0000E-05  1.0000E-05
       1.0000E-05  1.0000E-05  1.0000E-05  1.0000E-05  1.0000E-05  1.0000E-05  1.0000E-05  1.0000E-05  1.0000E-05   0.000    
        0.000       0.000       0.000       0.000       0.000       0.000       0.000       0.000       0.000       0.000    
        0.000       0.000       0.000       0.000       0.000       0.000       0.000       0.000       0.000       0.000    
        0.000       0.000       0.000       0.000       0.000       0.000       0.000       0.000       0.000       0.000    
        0.000       0.000       0.000       0.000       0.000       0.000       0.000       0.000       0.000       0.000    
        0.000       0.000       0.000       0.000       0.000       0.000    
 126    0.000      1.0000E-05  1.0000E-05  1.0000E-05  1.0000E-05  1.0000E-05  1.0000E-05  1.0000E-05  1.0000E-05  1.0000E-05
       1.0000E-05  1.0000E-05  1.0000E-05  1.0000E-05  1.0000E-05  1.0000E-05  1.0000E-05  1.0000E-05  1.0000E-05  1.0000E-05
       1.0000E-05  1.0000E-05  1.0000E-05  1.0000E-05  1.0000E-05   0.000       0.000       0.000       0.000       0.000    
        0.000       0.000       0.000       0.000       0.000       0.000       0.000       0.000       0.000       0.000    
        0.000       0.000       0.000       0.000       0.000       0.000       0.000       0.000       0.000       0.000    
        0.000       0.000       0.000       0.000       0.000       0.000       0.000       0.000       0.000       0.000    
        0.000       0.000       0.000       0.000       0.000       0.000       0.000       0.000       0.000       0.000    
        0.000       0.000       0.000       0.000       0.000       0.000    
 127    0.000      1.0000E-05  1.0000E-05  1.0000E-05  1.0000E-05  1.0000E-05  1.0000E-05  1.0000E-05  1.0000E-05  1.0000E-05
       1.0000E-05  1.0000E-05  1.0000E-05  1.0000E-05  1.0000E-05  1.0000E-05  1.0000E-05  1.0000E-05  1.0000E-05  1.0000E-05
       1.0000E-05  1.0000E-05  1.0000E-05  1.0000E-05   0.000       0.000       0.000       0.000       0.000       0.000    
        0.000       0.000       0.000       0.000       0.000       0.000       0.000       0.000       0.000       0.000    
        0.000       0.000       0.000       0.000       0.000       0.000       0.000       0.000       0.000       0.000    
        0.000       0.000       0.000       0.000       0.000       0.000       0.000       0.000       0.000       0.000    
        0.000       0.000       0.000       0.000       0.000       0.000       0.000       0.000       0.000       0.000    
        0.000       0.000       0.000       0.000       0.000       0.000    
 128   1.0000E-05  1.0000E-05  1.0000E-05  1.0000E-05  1.0000E-05  1.0000E-05  1.0000E-05  1.0000E-05  1.0000E-05  1.0000E-05
       1.0000E-05  1.0000E-05  1.0000E-05  1.0000E-05  1.0000E-05  1.0000E-05  1.0000E-05  1.0000E-05  1.0000E-05   0.000    
        0.000       0.000       0.000       0.000       0.000       0.000       0.000       0.000       0.000       0.000    
        0.000       0.000       0.000       0.000       0.000       0.000       0.000       0.000       0.000       0.000    
        0.000       0.000       0.000       0.000       0.000       0.000       0.000       0.000       0.000       0.000    
        0.000       0.000       0.000       0.000       0.000       0.000       0.000       0.000       0.000       0.000    
        0.000       0.000       0.000       0.000       0.000       0.000       0.000       0.000       0.000       0.000    
        0.000       0.000       0.000       0.000       0.000       0.000    
 129   1.0000E-05  1.0000E-05  1.0000E-05  1.0000E-05  1.0000E-05  1.0000E-05  1.0000E-05  1.0000E-05  1.0000E-05  1.0000E-05
       1.0000E-05  1.0000E-05  1.0000E-05  1.0000E-05  1.0000E-05  1.0000E-05   0.000       0.000       0.000       0.000    
        0.000       0.000       0.000       0.000       0.000       0.000       0.000       0.000       0.000       0.000    
        0.000       0.000       0.000       0.000       0.000       0.000       0.000       0.000       0.000       0.000    
        0.000       0.000       0.000       0.000       0.000       0.000       0.000       0.000       0.000       0.000    
        0.000       0.000       0.000       0.000       0.000       0.000       0.000       0.000       0.000       0.000    
        0.000       0.000       0.000       0.000       0.000       0.000       0.000       0.000       0.000       0.000    
        0.000       0.000       0.000       0.000       0.000       0.000    
 130   1.0000E-05  1.0000E-05  1.0000E-05  1.0000E-05  1.0000E-05  1.0000E-05  1.0000E-05  1.0000E-05  1.0000E-05  1.0000E-05
       1.0000E-05   0.000       0.000       0.000       0.000       0.000       0.000       0.000       0.000       0.000    
        0.000       0.000       0.000       0.000       0.000       0.000       0.000       0.000       0.000       0.000    
        0.000       0.000       0.000       0.000       0.000       0.000       0.000       0.000       0.000       0.000    
        0.000       0.000       0.000       0.000       0.000       0.000       0.000       0.000       0.000       0.000    
        0.000       0.000       0.000       0.000       0.000       0.000       0.000       0.000       0.000       0.000    
        0.000       0.000       0.000       0.000       0.000       0.000       0.000       0.000       0.000       0.000    
        0.000       0.000       0.000       0.000       0.000       0.000    
 131   1.0000E-05  1.0000E-05  1.0000E-05  1.0000E-05   0.000       0.000       0.000       0.000       0.000       0.000    
        0.000       0.000       0.000       0.000       0.000       0.000       0.000       0.000       0.000       0.000    
        0.000       0.000       0.000       0.000       0.000       0.000       0.000       0.000       0.000       0.000    
        0.000       0.000       0.000       0.000       0.000       0.000       0.000       0.000       0.000       0.000    
        0.000       0.000       0.000       0.000       0.000       0.000       0.000       0.000       0.000       0.000    
        0.000       0.000       0.000       0.000       0.000       0.000       0.000       0.000       0.000       0.000    
        0.000       0.000       0.000       0.000       0.000       0.000       0.000       0.000       0.000       0.000    
        0.000       0.000       0.000       0.000       0.000       0.000    
 
 SOLVING FOR HEAD 
                                                   Max.-Head-Change                        Max.-Flux-Residual
  Residual-Control   Outer-Iter.   Inner-Iter.     Column Row Layer    Max.-Head-Change    Column Row Layer    Max.-Flux-Residual            L2-New               L2-Old           Solver-Max-Delh
          0                 1           2            62   29     1       0.2297596687E+05      34  103    1       0.1027740666E+07      0.1406685457E+07      0.0000000000E+00      0.2297596687E+05
          1                 1           0            62   29     1       0.1608317653E+05      62   29    1      -0.2874216314E+10      0.4058229473E+10      0.1406685457E+07      0.2297596687E+05
          2                 1           0            62   29     1       0.1125822338E+05      62   29    1      -0.2011028489E+10      0.2841359727E+10      0.4058229473E+10      0.2297596687E+05
          3                 1           0            62   29     1       0.7880756233E+04      62   29    1      -0.1406797023E+10      0.1989570346E+10      0.2841359727E+10      0.2297596687E+05
          4                 1           0            62   29     1       0.5516529269E+04      62   29    1      -0.9838350031E+09      0.1393307245E+10      0.1989570346E+10      0.2297596687E+05
          5                 1           0            62   29     1       0.3861570423E+04      62   29    1      -0.6877615945E+09      0.9759655537E+09      0.1393307245E+10      0.2297596687E+05
          6                 1           0            62   29     1       0.2703099250E+04      62   29    1      -0.4805102120E+09      0.6838545147E+09      0.9759655537E+09      0.2297596687E+05
          7                 1           0            62   29     1       0.1892169443E+04      62   29    1      -0.3354342468E+09      0.4793945858E+09      0.6838545147E+09      0.2297596687E+05
          8                 1           0            62   29     1       0.1324518587E+04      34  103    1      -0.2363313263E+09      0.3362321851E+09      0.4793945858E+09      0.2297596687E+05
          9                 1           0            62   29     1       0.9271629953E+03      34  103    1      -0.1671334853E+09      0.2360977878E+09      0.3362321851E+09      0.2297596687E+05
                                                   Max.-Head-Change                        Max.-Flux-Residual
  Residual-Control   Outer-Iter.   Inner-Iter.     Column Row Layer    Max.-Head-Change    Column Row Layer    Max.-Flux-Residual            L2-New               L2-Old           Solver-Max-Delh
         10                 1           0            62   29     1       0.6490140857E+03      34  103    1      -0.1186949974E+09      0.1661076171E+09      0.2360977878E+09      0.2297596687E+05
         11                 1           0            62   29     1       0.4543098522E+03      34  103    1      -0.8478805644E+08      0.1171678160E+09      0.1661076171E+09      0.2297596687E+05
         12                 1           0            62   29     1       0.3180168911E+03      34  103    1      -0.6105319819E+08      0.8262047820E+08      0.1171678160E+09      0.2297596687E+05
         13                 1           0            62   29     1       0.2226118200E+03      34  103    1      -0.4443879769E+08      0.5845701219E+08      0.8262047820E+08      0.2297596687E+05
         14                 1           0            62   29     1       0.1558282714E+03      34  103    1      -0.3280871755E+08      0.4163653102E+08      0.5845701219E+08      0.2297596687E+05
         15                 1           0            62   29     1       0.1090797881E+03      34  103    1      -0.2466867532E+08      0.2998418800E+08      0.4163653102E+08      0.2297596687E+05
         16                 1           0            62   29     1       0.7635585036E+02      34  103    1      -0.1897112052E+08      0.2197297862E+08      0.2998418800E+08      0.2297596687E+05
         17                 1           0            62   29     1       0.5344909434E+02      34  103    1      -0.1498283241E+08      0.1652044448E+08      0.2197297862E+08      0.2297596687E+05
         18                 1           0            62   29     1       0.3741436540E+02      34  103    1      -0.1219103087E+08      0.1281624235E+08      0.1652044448E+08      0.2297596687E+05
         19                 1           0            62   29     1       0.2619005534E+02      34  103    1      -0.1023676987E+08      0.1042536194E+08      0.1281624235E+08      0.2297596687E+05
                                                   Max.-Head-Change                        Max.-Flux-Residual
  Residual-Control   Outer-Iter.   Inner-Iter.     Column Row Layer    Max.-Head-Change    Column Row Layer    Max.-Flux-Residual            L2-New               L2-Old           Solver-Max-Delh
         20                 1           0            62   29     1       0.1833303842E+02      34  103    1      -0.8727018928E+07      0.8787109115E+07      0.1042536194E+08      0.2297596687E+05
         21                 1           0            62   29     1       0.1283312668E+02      34  103    1      -0.5798198138E+07      0.5876744917E+07      0.8787109115E+07      0.2297596687E+05
         22                 1           0            62   29     1       0.8983188521E+01      34  103    1      -0.3748272971E+07      0.3869236457E+07      0.5876744917E+07      0.2297596687E+05
         23                 1           0            62   29     1       0.6288231858E+01      34  103    1      -0.2313403838E+07      0.2504716511E+07      0.3869236457E+07      0.2297596687E+05
         24                 1           0            62   29     1       0.4401762226E+01      34  103    1      -0.1309032188E+07      0.1623440719E+07      0.2504716511E+07      0.2297596687E+05
          0                 2           2            62   29     1       0.2296584164E+05      34  103    1      -0.6059900403E+06      0.1135506019E+07      0.1623440719E+07      0.2296584164E+05
          1                 2           0            62   29     1       0.1607608887E+05      62   29    1      -0.2873499561E+10      0.2930654996E+10      0.1135506019E+07      0.2296584164E+05
          2                 2           0            62   29     1       0.1125326202E+05      62   29    1      -0.2010692133E+10      0.2050825993E+10      0.2930654996E+10      0.2296584164E+05
          3                 2           0            62   29     1       0.7877283280E+04      62   29    1      -0.1406726944E+10      0.1434971845E+10      0.2050825993E+10      0.2296584164E+05
          4                 2           0            62   29     1       0.5514098202E+04      62   29    1      -0.9839513183E+09      0.1003856548E+10      0.1434971845E+10      0.2296584164E+05
                                                   Max.-Head-Change                        Max.-Flux-Residual
  Residual-Control   Outer-Iter.   Inner-Iter.     Column Row Layer    Max.-Head-Change    Column Row Layer    Max.-Flux-Residual            L2-New               L2-Old           Solver-Max-Delh
          5                 2           0            62   29     1       0.3859868676E+04      62   29    1      -0.6880083857E+09      0.7021308409E+09      0.1003856548E+10      0.2296584164E+05
          6                 2           0            62   29     1       0.2701908027E+04      62   29    1      -0.4808483364E+09      0.4909570901E+09      0.7021308409E+09      0.2296584164E+05
          7                 2           0            62   29     1       0.1891335587E+04      62   29    1      -0.3358363043E+09      0.3431535792E+09      0.4909570901E+09      0.2296584164E+05
          8                 2           0            62   29     1       0.1323934888E+04      62   29    1      -0.2343278836E+09      0.2396232658E+09      0.3431535792E+09      0.2296584164E+05
          9                 2           0            62   29     1       0.9267544059E+03      62   29    1      -0.1632719903E+09      0.1672484683E+09      0.2396232658E+09      0.2296584164E+05
         10                 2           0            62   29     1       0.6487280731E+03      62   29    1      -0.1135328658E+09      0.1167132883E+09      0.1672484683E+09      0.2296584164E+05
         11                 2           0            62   29     1       0.4541096434E+03      62   29    1      -0.7871547932E+08      0.8140155913E+08      0.1167132883E+09      0.2296584164E+05
         12                 2           0            62   29     1       0.3178767450E+03      62   29    1      -0.5434332365E+08      0.5621428288E+08      0.8140155913E+08      0.2296584164E+05
         13                 2           0            62   29     1       0.2225137177E+03      62   29    1      -0.3728281756E+08      0.3853753586E+08      0.5621428288E+08      0.2296584164E+05
         14                 2           0            62   29     1       0.1557595997E+03      62   29    1      -0.2534046350E+08      0.2619838141E+08      0.3853753586E+08      0.2296584164E+05
                                                   Max.-Head-Change                        Max.-Flux-Residual
  Residual-Control   Outer-Iter.   Inner-Iter.     Column Row Layer    Max.-Head-Change    Column Row Layer    Max.-Flux-Residual            L2-New               L2-Old           Solver-Max-Delh
         15                 2           0            62   29     1       0.1090317180E+03      62   29    1      -0.1698081580E+08      0.1761042336E+08      0.2619838141E+08      0.2296584164E+05
         16                 2           0            62   29     1       0.7632220127E+02      62   29    1      -0.1112906250E+08      0.1165446022E+08      0.1761042336E+08      0.2296584164E+05
         17                 2           0            62   29     1       0.5342553998E+02      62   29    1      -0.7032835271E+07      0.7531088340E+07      0.1165446022E+08      0.2296584164E+05
         18                 2           0            62   29     1       0.3739787735E+02      62   29    1      -0.4165476256E+07      0.4565550378E+07      0.7531088340E+07      0.2296584164E+05
         19                 2           0            62   29     1       0.2617851370E+02      62   29    1      -0.2158326377E+07      0.2558366570E+07      0.4565550378E+07      0.2296584164E+05
         20                 2           0            62   29     1       0.1832495928E+02      62   29    1      -0.7533215555E+06      0.1410880123E+07      0.2558366570E+07      0.2296584164E+05
          0                 3           2            62   30     1       0.8809929206E+04      34  103    1      -0.6055306614E+06      0.1125749011E+07      0.1410880123E+07      0.8809929206E+04
          1                 3           0            62   30     1       0.6166950339E+04      62   30    1      -0.4254683273E+09      0.4409357868E+09      0.1125749011E+07      0.8809929206E+04
          2                 3           0            62   30     1       0.4316865164E+04      62   30    1      -0.2979364699E+09      0.3093014506E+09      0.4409357868E+09      0.8809929206E+04
          3                 3           0            62   30     1       0.3021805563E+04      62   30    1      -0.2086641713E+09      0.2173279883E+09      0.3093014506E+09      0.8809929206E+04
                                                   Max.-Head-Change                        Max.-Flux-Residual
  Residual-Control   Outer-Iter.   Inner-Iter.     Column Row Layer    Max.-Head-Change    Column Row Layer    Max.-Flux-Residual            L2-New               L2-Old           Solver-Max-Delh
          4                 3           0            62   30     1       0.2115263858E+04      62   30    1      -0.1461735632E+09      0.1528236952E+09      0.2173279883E+09      0.8809929206E+04
          5                 3           0            62   30     1       0.1480684676E+04      62   30    1      -0.1024301384E+09      0.1080206244E+09      0.1528236952E+09      0.8809929206E+04
          6                 3           0            62   30     1       0.1036479255E+04      62   30    1      -0.7180974151E+08      0.7686691011E+08      0.1080206244E+09      0.8809929206E+04
          7                 3           0            62   30     1       0.7255354663E+03      62   30    1      -0.5037546406E+08      0.5513857615E+08      0.7686691011E+08      0.8809929206E+04
          8                 3           0            62   30     1       0.5078748178E+03      62   30    1      -0.3537147010E+08      0.3947316256E+08      0.5513857615E+08      0.8809929206E+04
          9                 3           0            62   30     1       0.3555123664E+03      62   30    1      -0.2486868456E+08      0.2901801222E+08      0.3947316256E+08      0.8809929206E+04
         10                 3           0            62   30     1       0.2488586522E+03      62   30    1      -0.1751674963E+08      0.2227128212E+08      0.2901801222E+08      0.8809929206E+04
         11                 3           0            62   30     1       0.1742010536E+03      62   30    1      -0.1237039527E+08      0.1786829700E+08      0.2227128212E+08      0.8809929206E+04
         12                 3           0            62   30     1       0.1219407354E+03      62   30    1      -0.8767947283E+07      0.1232327208E+08      0.1786829700E+08      0.8809929206E+04
         13                 3           0            62   30     1       0.8535851335E+02      62   30    1      -0.6246233732E+07      0.8264738465E+07      0.1232327208E+08      0.8809929206E+04
                                                   Max.-Head-Change                        Max.-Flux-Residual
  Residual-Control   Outer-Iter.   Inner-Iter.     Column Row Layer    Max.-Head-Change    Column Row Layer    Max.-Flux-Residual            L2-New               L2-Old           Solver-Max-Delh
         14                 3           0            62   30     1       0.5975095833E+02      62   30    1      -0.4481037123E+07      0.5491184554E+07      0.8264738465E+07      0.8809929206E+04
         15                 3           0            62   30     1       0.4182567012E+02      62   30    1      -0.3245402094E+07      0.3751687255E+07      0.5491184554E+07      0.8809929206E+04
         16                 3           0            62   30     1       0.2927796858E+02      62   30    1      -0.2380459214E+07      0.2712869089E+07      0.3751687255E+07      0.8809929206E+04
         17                 3           0            62   30     1       0.2049457766E+02      62   30    1      -0.1774999208E+07      0.2136976470E+07      0.2712869089E+07      0.8809929206E+04
         18                 3           0            62   30     1       0.1434620412E+02      62   30    1      -0.1352806361E+07      0.1772756060E+07      0.2136976470E+07      0.8809929206E+04
         19                 3           0            62   30     1       0.1004234271E+02      62   30    1      -0.7356621214E+06      0.1347845358E+07      0.1772756060E+07      0.8809929206E+04
          0                 4           2            58   12     1       0.2169792407E+04      34  103    1      -0.6048748963E+06      0.1164223748E+07      0.1347845358E+07      0.2169792407E+04
          1                 4           0            58   12     1       0.1518854659E+04      58   12    1      -0.6870198868E+08      0.1140346951E+09      0.1164223748E+07      0.2169792407E+04
          2                 4           0            58   12     1       0.1063198243E+04      58   12    1      -0.4827875261E+08      0.8179557811E+08      0.1140346951E+09      0.2169792407E+04
          3                 4           0            58   12     1       0.7442387575E+03      58   12    1      -0.3398248760E+08      0.5979999602E+08      0.8179557811E+08      0.2169792407E+04
                                                   Max.-Head-Change                        Max.-Flux-Residual
  Residual-Control   Outer-Iter.   Inner-Iter.     Column Row Layer    Max.-Head-Change    Column Row Layer    Max.-Flux-Residual            L2-New               L2-Old           Solver-Max-Delh
          4                 4           0            58   12     1       0.5209671214E+03      58   12    1      -0.2397510226E+08      0.4384379432E+08      0.5979999602E+08      0.2169792407E+04
          5                 4           0            58   12     1       0.3646769788E+03      58   12    1      -0.1696993265E+08      0.3370559340E+08      0.4384379432E+08      0.2169792407E+04
          6                 4           0            58   12     1       0.2552738808E+03      14  125    1      -0.1237986955E+08      0.2696487746E+08      0.3370559340E+08      0.2169792407E+04
          7                 4           0            58   12     1       0.1786917135E+03      14  125    1      -0.1205279618E+08      0.2202407081E+08      0.2696487746E+08      0.2169792407E+04
          8                 4           0            58   12     1       0.1250841973E+03      14  125    1      -0.1182384483E+08      0.1718440914E+08      0.2202407081E+08      0.2169792407E+04
          9                 4           0            58   12     1       0.8755893664E+02      14  125    1      -0.1166385943E+08      0.1461048066E+08      0.1718440914E+08      0.2169792407E+04
         10                 4           0            58   12     1       0.6129125460E+02      14  125    1      -0.1155259512E+08      0.1341037229E+08      0.1461048066E+08      0.2169792407E+04
         11                 4           0            58   12     1       0.4290387749E+02      14  125    1      -0.1147471011E+08      0.1268300711E+08      0.1341037229E+08      0.2169792407E+04
         12                 4           0            58   12     1       0.3003271373E+02      14  125    1      -0.7856672789E+07      0.8840176126E+07      0.1268300711E+08      0.2169792407E+04
         13                 4           0            58   12     1       0.2102289926E+02      14  125    1      -0.5025245151E+07      0.5762944570E+07      0.8840176126E+07      0.2169792407E+04
                                                   Max.-Head-Change                        Max.-Flux-Residual
  Residual-Control   Outer-Iter.   Inner-Iter.     Column Row Layer    Max.-Head-Change    Column Row Layer    Max.-Flux-Residual            L2-New               L2-Old           Solver-Max-Delh
         14                 4           0            58   12     1       0.1471602923E+02      14  125    1      -0.3043436360E+07      0.3499230232E+07      0.5762944570E+07      0.2169792407E+04
         15                 4           0            58   12     1       0.1030122028E+02      14  125    1      -0.1656263586E+07      0.2159273296E+07      0.3499230232E+07      0.2169792407E+04
         16                 4           0            58   12     1       0.7210854076E+01      14  125    1      -0.6852884052E+06      0.1431207734E+07      0.2159273296E+07      0.2169792407E+04
          0                 5           2            58   12     1       0.2168228055E+04      34  103    1      -0.6029650953E+06      0.1198467298E+07      0.1431207734E+07      0.2168228055E+04
          1                 5           0            58   12     1       0.1517759613E+04      58   12    1      -0.6887914823E+08      0.1117563398E+09      0.1198467298E+07      0.2168228055E+04
          2                 5           0            58   12     1       0.1062431711E+04      58   12    1      -0.4847063667E+08      0.7964276062E+08      0.1117563398E+09      0.2168228055E+04
          3                 5           0            58   12     1       0.7437021848E+03      58   12    1      -0.3418467882E+08      0.5762307135E+08      0.7964276062E+08      0.2168228055E+04
          4                 5           0            58   12     1       0.5205915205E+03      58   12    1      -0.2418450850E+08      0.4139587169E+08      0.5762307135E+08      0.2168228055E+04
          5                 5           0            58   12     1       0.3644140581E+03      58   12    1      -0.1718438939E+08      0.3088682338E+08      0.4139587169E+08      0.2168228055E+04
          6                 5           0            58   12     1       0.2550898364E+03      58   12    1      -0.1228430610E+08      0.2379103330E+08      0.3088682338E+08      0.2168228055E+04
                                                   Max.-Head-Change                        Max.-Flux-Residual
  Residual-Control   Outer-Iter.   Inner-Iter.     Column Row Layer    Max.-Head-Change    Column Row Layer    Max.-Flux-Residual            L2-New               L2-Old           Solver-Max-Delh
          7                 5           0            58   12     1       0.1785628824E+03      30  102    1      -0.1015529300E+08      0.1822411558E+08      0.2379103330E+08      0.2168228055E+04
          8                 5           0            58   12     1       0.1249940156E+03      58   12    1      -0.6453230732E+07      0.1235536880E+08      0.1822411558E+08      0.2168228055E+04
          9                 5           0            58   12     1       0.8749580940E+02      58   12    1      -0.4772511077E+07      0.8443475414E+07      0.1235536880E+08      0.2168228055E+04
         10                 5           0            58   12     1       0.6124706554E+02      58   12    1      -0.3596007338E+07      0.6339359230E+07      0.8443475414E+07      0.2168228055E+04
         11                 5           0            58   12     1       0.4287294515E+02      58   12    1      -0.2772454735E+07      0.5051929038E+07      0.6339359230E+07      0.2168228055E+04
         12                 5           0            58   12     1       0.3001106109E+02      58   12    1      -0.2195967923E+07      0.3841616465E+07      0.5051929038E+07      0.2168228055E+04
         13                 5           0            58   12     1       0.2100774241E+02      58   12    1      -0.1792427161E+07      0.2878722841E+07      0.3841616465E+07      0.2168228055E+04
         14                 5           0            58   12     1       0.1470541943E+02      58   12    1      -0.1245931554E+07      0.2003817272E+07      0.2878722841E+07      0.2168228055E+04
         15                 5           0            58   12     1       0.1029379343E+02      58   12    1      -0.6132214816E+06      0.1362526571E+07      0.2003817272E+07      0.2168228055E+04
          0                 6           2            58   13     1       0.2113525599E+04      34  103    1      -0.6002453935E+06      0.1204618626E+07      0.1362526571E+07      0.2113525599E+04
                                                   Max.-Head-Change                        Max.-Flux-Residual
  Residual-Control   Outer-Iter.   Inner-Iter.     Column Row Layer    Max.-Head-Change    Column Row Layer    Max.-Flux-Residual            L2-New               L2-Old           Solver-Max-Delh
          1                 6           0            58   13     1       0.1479467894E+04      58   13    1      -0.6555494077E+08      0.8723465677E+08      0.1204618626E+07      0.2113525599E+04
          2                 6           0            58   13     1       0.1035627508E+04      58   13    1      -0.4612208483E+08      0.6280335247E+08      0.8723465677E+08      0.2113525599E+04
          3                 6           0            58   13     1       0.7249392435E+03      58   13    1      -0.3251908590E+08      0.4629479875E+08      0.6280335247E+08      0.2113525599E+04
          4                 6           0            58   13     1       0.5074574618E+03      58   13    1      -0.2299698682E+08      0.3363884641E+08      0.4629479875E+08      0.2113525599E+04
          5                 6           0            58   13     1       0.3552202172E+03      58   13    1      -0.1633151757E+08      0.2577627258E+08      0.3363884641E+08      0.2113525599E+04
          6                 6           0            58   13     1       0.2486541478E+03      58   13    1      -0.1166569597E+08      0.2069728987E+08      0.2577627258E+08      0.2113525599E+04
          7                 6           0            58   13     1       0.1740579005E+03      30  102    1      -0.1016873178E+08      0.1623646144E+08      0.2069728987E+08      0.2113525599E+04
          8                 6           0            58   13     1       0.1218405283E+03      30  102    1      -0.6523212102E+07      0.1124190315E+08      0.1623646144E+08      0.2113525599E+04
          9                 6           0            58   13     1       0.8528836834E+02      58   13    1      -0.4513010595E+07      0.7527657786E+07      0.1124190315E+08      0.2113525599E+04
         10                 6           0            58   13     1       0.5970185682E+02      58   13    1      -0.3392749869E+07      0.5551101987E+07      0.7527657786E+07      0.2113525599E+04
                                                   Max.-Head-Change                        Max.-Flux-Residual
  Residual-Control   Outer-Iter.   Inner-Iter.     Column Row Layer    Max.-Head-Change    Column Row Layer    Max.-Flux-Residual            L2-New               L2-Old           Solver-Max-Delh
         11                 6           0            58   13     1       0.4179129906E+02      58   13    1      -0.2608567374E+07      0.4739078585E+07      0.5551101987E+07      0.2113525599E+04
         12                 6           0            58   13     1       0.2925390885E+02      58   13    1      -0.2059639637E+07      0.3782456320E+07      0.4739078585E+07      0.2113525599E+04
         13                 6           0            58   13     1       0.2047773584E+02      58   13    1      -0.1675391189E+07      0.2958360670E+07      0.3782456320E+07      0.2113525599E+04
         14                 6           0            58   13     1       0.1433441485E+02      58   13    1      -0.1406417710E+07      0.2335907369E+07      0.2958360670E+07      0.2113525599E+04
         15                 6           0            58   13     1       0.1003409022E+02      58   13    1      -0.1172979702E+07      0.1929904470E+07      0.2335907369E+07      0.2113525599E+04
         16                 6           0            58   13     1       0.7023863036E+01      58   13    1      -0.7410619572E+06      0.1542210992E+07      0.1929904470E+07      0.2113525599E+04
         17                 6           0            58   13     1       0.4916704041E+01      34  103    1      -0.5983501696E+06      0.1337825160E+07      0.1542210992E+07      0.2113525599E+04
          0                 7           2            38   30     1       0.4358671442E+03      34  103    1      -0.5989187368E+06      0.1245292519E+07      0.1337825160E+07      0.4358671442E+03
          1                 7           0            38   30     1       0.3051069958E+03      33   73    1      -0.1986066412E+08      0.5130519846E+08      0.1245292519E+07      0.4358671442E+03
          2                 7           0            38   30     1       0.2135748934E+03      36   80    1      -0.1569838149E+08      0.3828191207E+08      0.5130519846E+08      0.4358671442E+03
                                                   Max.-Head-Change                        Max.-Flux-Residual
  Residual-Control   Outer-Iter.   Inner-Iter.     Column Row Layer    Max.-Head-Change    Column Row Layer    Max.-Flux-Residual            L2-New               L2-Old           Solver-Max-Delh
          3                 7           0            38   30     1       0.1495024228E+03      36   80    1      -0.1563031297E+08      0.2999339294E+08      0.3828191207E+08      0.4358671442E+03
          4                 7           0            38   30     1       0.1046516942E+03      30  104    1      -0.1154283414E+08      0.2235632016E+08      0.2999339294E+08      0.4358671442E+03
          5                 7           0            38   30     1       0.7325618470E+02      30  104    1      -0.1145078609E+08      0.1834876188E+08      0.2235632016E+08      0.4358671442E+03
          6                 7           0            38   30     1       0.5127932841E+02      30  104    1      -0.1063178114E+08      0.1603342277E+08      0.1834876188E+08      0.4358671442E+03
          7                 7           0            38   30     1       0.3589552928E+02      30  102    1      -0.1017531669E+08      0.1297238502E+08      0.1603342277E+08      0.4358671442E+03
          8                 7           0            38   30     1       0.2512687007E+02      30  102    1      -0.6853152263E+07      0.8624347216E+07      0.1297238502E+08      0.4358671442E+03
          9                 7           0            38   30     1       0.1758880875E+02      30  102    1      -0.3348490055E+07      0.4740256228E+07      0.8624347216E+07      0.4358671442E+03
         10                 7           0            38   30     1       0.1231216591E+02      38   30    1      -0.1471017459E+07      0.2413800031E+07      0.4740256228E+07      0.4358671442E+03
         11                 7           0            38   30     1       0.8618515993E+01      38   30    1      -0.9416251726E+06      0.1681573758E+07      0.2413800031E+07      0.4358671442E+03
         12                 7           0            38   30     1       0.6032961092E+01      34  103    1      -0.5876671448E+06      0.1415328407E+07      0.1681573758E+07      0.4358671442E+03
                                                   Max.-Head-Change                        Max.-Flux-Residual
  Residual-Control   Outer-Iter.   Inner-Iter.     Column Row Layer    Max.-Head-Change    Column Row Layer    Max.-Flux-Residual            L2-New               L2-Old           Solver-Max-Delh
          0                 8           2            34   65     1       0.2488076553E+03      34  103    1      -0.5910426224E+06      0.1291771625E+07      0.1415328407E+07      0.2488076553E+03
          1                 8           0            34   65     1       0.1741653557E+03      33   73    1      -0.1986079976E+08      0.4998168539E+08      0.1291771625E+07      0.2488076553E+03
          2                 8           0            34   65     1       0.1219157469E+03      36   80    1      -0.1570289164E+08      0.3747109152E+08      0.4998168539E+08      0.2488076553E+03
          3                 8           0            34   65     1       0.8534102140E+02      36   80    1      -0.1563442096E+08      0.2947561689E+08      0.3747109152E+08      0.2488076553E+03
          4                 8           0            34   65     1       0.5973871397E+02      30  104    1      -0.1155521519E+08      0.2225204781E+08      0.2947561689E+08      0.2488076553E+03
          5                 8           0            34   65     1       0.4181709906E+02      30  104    1      -0.1146313368E+08      0.1821998551E+08      0.2225204781E+08      0.2488076553E+03
          6                 8           0            34   65     1       0.2927196885E+02      30  104    1      -0.1139897440E+08      0.1637038689E+08      0.1821998551E+08      0.2488076553E+03
          7                 8           0            34   65     1       0.2049037784E+02      30  102    1      -0.1021449600E+08      0.1329800584E+08      0.1637038689E+08      0.2488076553E+03
          8                 8           0            34   65     1       0.1434326425E+02      30  102    1      -0.8816339951E+07      0.1038632365E+08      0.1329800584E+08      0.2488076553E+03
          9                 8           0            34   65     1       0.1004028480E+02      30  102    1      -0.5311542231E+07      0.6315034196E+07      0.1038632365E+08      0.2488076553E+03
                                                   Max.-Head-Change                        Max.-Flux-Residual
  Residual-Control   Outer-Iter.   Inner-Iter.     Column Row Layer    Max.-Head-Change    Column Row Layer    Max.-Flux-Residual            L2-New               L2-Old           Solver-Max-Delh
         10                 8           0            34   65     1       0.7028199241E+01      30  102    1      -0.2858471912E+07      0.3553668806E+07      0.6315034196E+07      0.2488076553E+03
         11                 8           0            34   65     1       0.4919739385E+01      30  102    1      -0.1141463860E+07      0.1834980966E+07      0.3553668806E+07      0.2488076553E+03
          0                 9           2            62   16     1       0.1625083980E+03      34  103    1      -0.5799388792E+06      0.1266668487E+07      0.1834980966E+07      0.1625083980E+03
          1                 9           0            62   16     1       0.1137558766E+03      33   73    1      -0.1986099305E+08      0.5047948493E+08      0.1266668487E+07      0.1625083980E+03
          2                 9           0            62   16     1       0.7962911228E+02      33   73    1      -0.1603339080E+08      0.3810398326E+08      0.5047948493E+08      0.1625083980E+03
          3                 9           0            62   16     1       0.5574037765E+02      36   80    1      -0.1564086518E+08      0.2995163830E+08      0.3810398326E+08      0.1625083980E+03
          4                 9           0            62   16     1       0.3901826369E+02      30  104    1      -0.1157290211E+08      0.2302091432E+08      0.2995163830E+08      0.1625083980E+03
          5                 9           0            62   16     1       0.2731278412E+02      30  104    1      -0.1148082283E+08      0.1872351677E+08      0.2302091432E+08      0.1625083980E+03
          6                 9           0            62   16     1       0.1911894856E+02      30  104    1      -0.1141657586E+08      0.1664598544E+08      0.1872351677E+08      0.1625083980E+03
          7                 9           0            62   16     1       0.1338326376E+02      30  102    1      -0.1027046429E+08      0.1431372293E+08      0.1664598544E+08      0.1625083980E+03
                                                   Max.-Head-Change                        Max.-Flux-Residual
  Residual-Control   Outer-Iter.   Inner-Iter.     Column Row Layer    Max.-Head-Change    Column Row Layer    Max.-Flux-Residual            L2-New               L2-Old           Solver-Max-Delh
          8                 9           0            62   16     1       0.9368284474E+01      30  102    1      -0.1017053515E+08      0.1229551085E+08      0.1431372293E+08      0.1625083980E+03
          9                 9           0            62   16     1       0.6557799020E+01      30  102    1      -0.8116057514E+07      0.9449824052E+07      0.1229551085E+08      0.1625083980E+03
         10                 9           0            62   16     1       0.4590459236E+01      30  102    1      -0.5662851668E+07      0.6635308193E+07      0.9449824052E+07      0.1625083980E+03
         11                 9           0            62   16     1       0.3213321410E+01      30  102    1      -0.3945748730E+07      0.4699799304E+07      0.6635308193E+07      0.1625083980E+03
         12                 9           0            62   16     1       0.2249324949E+01      30  102    1      -0.2743845845E+07      0.3386680777E+07      0.4699799304E+07      0.1625083980E+03
         13                 9           0            62   16     1       0.1574527437E+01      30  102    1      -0.1902547723E+07      0.2517210081E+07      0.3386680777E+07      0.1625083980E+03
         14                 9           0            62   16     1       0.1102169187E+01      30  102    1      -0.1313655652E+07      0.1963381558E+07      0.2517210081E+07      0.1625083980E+03
         15                 9           0            62   16     1       0.7715184181E+00      30  102    1      -0.9014393440E+06      0.1631005754E+07      0.1963381558E+07      0.1625083980E+03
         16                 9           0            62   16     1       0.5400628835E+00      30  102    1      -0.6128919200E+06      0.1445527226E+07      0.1631005754E+07      0.1625083980E+03
          0                10           2            62   16     1       0.1624996111E+03      34  103    1      -0.5781077140E+06      0.1349172785E+07      0.1445527226E+07      0.1624996111E+03
                                                   Max.-Head-Change                        Max.-Flux-Residual
  Residual-Control   Outer-Iter.   Inner-Iter.     Column Row Layer    Max.-Head-Change    Column Row Layer    Max.-Flux-Residual            L2-New               L2-Old           Solver-Max-Delh
          1                10           0            62   16     1       0.1137497258E+03      33   73    1      -0.1986102541E+08      0.4739022399E+08      0.1349172785E+07      0.1624996111E+03
          2                10           0            62   16     1       0.7962480673E+02      33   73    1      -0.1610174404E+08      0.3431197863E+08      0.4739022399E+08      0.1624996111E+03
          3                10           0            62   16     1       0.5573736376E+02      36   80    1      -0.1564194825E+08      0.2524847712E+08      0.3431197863E+08      0.1624996111E+03
          4                10           0            62   16     1       0.3901615397E+02      36   80    1      -0.1069179910E+08      0.1684892174E+08      0.2524847712E+08      0.1624996111E+03
          5                10           0            62   16     1       0.2731130731E+02      36   80    1      -0.6037966178E+07      0.1049449088E+08      0.1684892174E+08      0.1624996111E+03
          6                10           0            62   16     1       0.1911791479E+02      33   73    1      -0.3565573392E+07      0.6388624563E+07      0.1049449088E+08      0.1624996111E+03
          7                10           0            62   16     1       0.1338254013E+02      33   73    1      -0.2377682878E+07      0.3758362209E+07      0.6388624563E+07      0.1624996111E+03
          8                10           0            62   16     1       0.9367777930E+01      33   73    1      -0.1546200524E+07      0.2480183656E+07      0.3758362209E+07      0.1624996111E+03
          9                10           0            62   16     1       0.6557444439E+01      33   73    1      -0.9641829716E+06      0.1797478881E+07      0.2480183656E+07      0.1624996111E+03
         10                10           0            62   16     1       0.4590211029E+01      33   73    1      -0.5567805340E+06      0.1485820040E+07      0.1797478881E+07      0.1624996111E+03
                                                   Max.-Head-Change                        Max.-Flux-Residual
  Residual-Control   Outer-Iter.   Inner-Iter.     Column Row Layer    Max.-Head-Change    Column Row Layer    Max.-Flux-Residual            L2-New               L2-Old           Solver-Max-Delh
          0                11           2            62   16     1       0.1624249666E+03      34  103    1      -0.5625920485E+06      0.1369788800E+07      0.1485820040E+07      0.1624249666E+03
          1                11           0            62   16     1       0.1136974747E+03      34   79    1      -0.1953052715E+08      0.4140742855E+08      0.1369788800E+07      0.1624249666E+03
          2                11           0            62   16     1       0.7958823091E+02      36   80    1      -0.1571962157E+08      0.2949534403E+08      0.4140742855E+08      0.1624249666E+03
          3                11           0            62   16     1       0.5571176069E+02      36   80    1      -0.1565115408E+08      0.2225451177E+08      0.2949534403E+08      0.1624249666E+03
          4                11           0            62   16     1       0.3899823182E+02      36   80    1      -0.1196913596E+08      0.1577581687E+08      0.2225451177E+08      0.1624249666E+03
          5                11           0            62   16     1       0.2729876181E+02      36   80    1      -0.7315125176E+07      0.9931208498E+07      0.1577581687E+08      0.1624249666E+03
          6                11           0            62   16     1       0.1910913294E+02      36   80    1      -0.4057960691E+07      0.6159311281E+07      0.9931208498E+07      0.1624249666E+03
          7                11           0            62   16     1       0.1337639283E+02      34   79    1      -0.2046930115E+07      0.3653497696E+07      0.6159311281E+07      0.1624249666E+03
          8                11           0            62   16     1       0.9363474822E+01      34   79    1      -0.1347743758E+07      0.2242305030E+07      0.3653497696E+07      0.1624249666E+03
          9                11           0            62   16     1       0.6554432264E+01      34   79    1      -0.8583211232E+06      0.1715957642E+07      0.2242305030E+07      0.1624249666E+03
                                                   Max.-Head-Change                        Max.-Flux-Residual
  Residual-Control   Outer-Iter.   Inner-Iter.     Column Row Layer    Max.-Head-Change    Column Row Layer    Max.-Flux-Residual            L2-New               L2-Old           Solver-Max-Delh
          0                12           2            29   66     1       0.1523454284E+03      34  103    1      -0.5410214755E+06      0.1475149126E+07      0.1715957642E+07      0.1523454284E+03
          1                12           0            29   66     1       0.1066417981E+03      36   80    1      -0.1583057608E+08      0.3521810306E+08      0.1475149126E+07      0.1523454284E+03
          2                12           0            29   66     1       0.7464925738E+02      36   80    1      -0.1573276926E+08      0.2566432746E+08      0.3521810306E+08      0.1523454284E+03
          3                12           0            29   66     1       0.5225447928E+02      36   80    1      -0.1566430448E+08      0.1988020806E+08      0.2566432746E+08      0.1523454284E+03
          4                12           0            29   66     1       0.3657813487E+02      36   80    1      -0.1379395317E+08      0.1575596096E+08      0.1988020806E+08      0.1523454284E+03
          5                12           0            29   66     1       0.2560469397E+02      36   80    1      -0.9139701667E+07      0.1025556254E+08      0.1575596096E+08      0.1523454284E+03
          6                12           0            29   66     1       0.1792328548E+02      36   80    1      -0.5882368619E+07      0.6582493945E+07      0.1025556254E+08      0.1523454284E+03
          7                12           0            29   66     1       0.1254629962E+02      36   80    1      -0.3602550571E+07      0.4171606677E+07      0.6582493945E+07      0.1523454284E+03
          8                12           0            29   66     1       0.8782409584E+01      36   80    1      -0.2006832336E+07      0.2620612680E+07      0.4171606677E+07      0.1523454284E+03
          9                12           0            29   66     1       0.6147686604E+01      36   80    1      -0.8899052336E+06      0.1752125188E+07      0.2620612680E+07      0.1523454284E+03
                                                   Max.-Head-Change                        Max.-Flux-Residual
  Residual-Control   Outer-Iter.   Inner-Iter.     Column Row Layer    Max.-Head-Change    Column Row Layer    Max.-Flux-Residual            L2-New               L2-Old           Solver-Max-Delh
          0                13           2            29   66     1       0.1522517677E+03      34  103    1      -0.5202777359E+06      0.1464963876E+07      0.1752125188E+07      0.1522517677E+03
          1                13           0            29   66     1       0.1065762356E+03      32   72    1      -0.1579893040E+08      0.2979724115E+08      0.1464963876E+07      0.1522517677E+03
          2                13           0            29   66     1       0.7460336362E+02      40   81    1      -0.8720107330E+07      0.1930289276E+08      0.2979724115E+08      0.1522517677E+03
          3                13           0            29   66     1       0.5222235365E+02      40   81    1      -0.6067117554E+07      0.1162456706E+08      0.1930289276E+08      0.1522517677E+03
          4                13           0            29   66     1       0.3655564693E+02      40   81    1      -0.4210206905E+07      0.7100724748E+07      0.1162456706E+08      0.1522517677E+03
          5                13           0            29   66     1       0.2558895242E+02      40   81    1      -0.2910436772E+07      0.4423151628E+07      0.7100724748E+07      0.1522517677E+03
          6                13           0            29   66     1       0.1791226639E+02      40   81    1      -0.2000630671E+07      0.2746567031E+07      0.4423151628E+07      0.1522517677E+03
          7                13           0            29   66     1       0.1253858626E+02      40   81    1      -0.1363782570E+07      0.1956023517E+07      0.2746567031E+07      0.1522517677E+03
          8                13           0            29   66     1       0.8777010230E+01      40   81    1      -0.9179968242E+06      0.1633027207E+07      0.1956023517E+07      0.1522517677E+03
          0                14           2            29   66     1       0.1521182483E+03      40   81    1      -0.6059506872E+06      0.1508237900E+07      0.1633027207E+07      0.1521182483E+03
                                                   Max.-Head-Change                        Max.-Flux-Residual
  Residual-Control   Outer-Iter.   Inner-Iter.     Column Row Layer    Max.-Head-Change    Column Row Layer    Max.-Flux-Residual            L2-New               L2-Old           Solver-Max-Delh
          1                14           0            29   66     1       0.1064827720E+03      32   72    1      -0.1694996964E+08      0.2851579081E+08      0.1508237900E+07      0.1521182483E+03
          2                14           0            29   66     1       0.7453793914E+02      32   72    1      -0.9696864899E+07      0.1870438427E+08      0.2851579081E+08      0.1521182483E+03
          3                14           0            29   66     1       0.5217655651E+02      39   83    1      -0.5347873518E+07      0.1159829272E+08      0.1870438427E+08      0.1521182483E+03
          4                14           0            29   66     1       0.3652358893E+02      39   83    1      -0.3669502495E+07      0.7036549358E+07      0.1159829272E+08      0.1521182483E+03
          5                14           0            29   66     1       0.2556651182E+02      39   83    1      -0.2494708947E+07      0.4695319640E+07      0.7036549358E+07      0.1521182483E+03
          6                14           0            29   66     1       0.1789655797E+02      39   83    1      -0.1672385890E+07      0.3010079574E+07      0.4695319640E+07      0.1521182483E+03
          7                14           0            29   66     1       0.1252759036E+02      39   83    1      -0.1096775642E+07      0.2052321628E+07      0.3010079574E+07      0.1521182483E+03
          0                15           2            29   66     1       0.1519280578E+03      39   83    1      -0.6938562569E+06      0.1628885249E+07      0.2052321628E+07      0.1519280578E+03
          1                15           0            29   66     1       0.1063496387E+03      32   72    1      -0.1857701401E+08      0.2531607985E+08      0.1628885249E+07      0.1519280578E+03
          2                15           0            29   66     1       0.7444474581E+02      32   72    1      -0.1143282541E+08      0.1682815128E+08      0.2531607985E+08      0.1519280578E+03
                                                   Max.-Head-Change                        Max.-Flux-Residual
  Residual-Control   Outer-Iter.   Inner-Iter.     Column Row Layer    Max.-Head-Change    Column Row Layer    Max.-Flux-Residual            L2-New               L2-Old           Solver-Max-Delh
          3                15           0            29   66     1       0.5211132118E+02      32   72    1      -0.6432802807E+07      0.1096620088E+08      0.1682815128E+08      0.1519280578E+03
          4                15           0            29   66     1       0.3647792420E+02      33  102    1      -0.3526871663E+07      0.6650042458E+07      0.1096620088E+08      0.1519280578E+03
          5                15           0            29   66     1       0.2553454651E+02      29   66    1      -0.2234597132E+07      0.4232625800E+07      0.6650042458E+07      0.1519280578E+03
          6                15           0            29   66     1       0.1787418225E+02      29   66    1      -0.2213441602E+07      0.3248069235E+07      0.4232625800E+07      0.1519280578E+03
          7                15           0            29   66     1       0.1251192736E+02      29   66    1      -0.1634540454E+07      0.2445447821E+07      0.3248069235E+07      0.1519280578E+03
          8                15           0            29   66     1       0.8758349005E+01      29   66    1      -0.1094313201E+07      0.1967469542E+07      0.2445447821E+07      0.1519280578E+03
          0                16           2            29   67     1       0.8026335360E+02      29   66    1      -0.7164974906E+06      0.1748140826E+07      0.1967469542E+07      0.8026335360E+02
          1                16           0            29   67     1       0.5618434656E+02      32   72    1      -0.1953671374E+08      0.2444954739E+08      0.1748140826E+07      0.8026335360E+02
          2                16           0            29   67     1       0.3932904192E+02      32   72    1      -0.1262972684E+08      0.1653777150E+08      0.2444954739E+08      0.8026335360E+02
          3                16           0            29   67     1       0.2753032888E+02      32   72    1      -0.7682259169E+07      0.1128822775E+08      0.1653777150E+08      0.8026335360E+02
                                                   Max.-Head-Change                        Max.-Flux-Residual
  Residual-Control   Outer-Iter.   Inner-Iter.     Column Row Layer    Max.-Head-Change    Column Row Layer    Max.-Flux-Residual            L2-New               L2-Old           Solver-Max-Delh
          4                16           0            29   67     1       0.1927122989E+02      33  102    1      -0.4261550808E+07      0.6915120403E+07      0.1128822775E+08      0.8026335360E+02
          5                16           0            29   67     1       0.1348986069E+02      33  102    1      -0.2875015025E+07      0.4190825306E+07      0.6915120403E+07      0.8026335360E+02
          6                16           0            29   67     1       0.9442902322E+01      33  102    1      -0.1904474680E+07      0.2669123027E+07      0.4190825306E+07      0.8026335360E+02
          7                16           0            29   67     1       0.6610031513E+01      33  102    1      -0.1225113446E+07      0.2062017209E+07      0.2669123027E+07      0.8026335360E+02
          0                17           2            29   67     1       0.8026309570E+02      33  102    1      -0.7495689188E+06      0.1802331128E+07      0.2062017209E+07      0.8026309570E+02
          1                17           0            29   67     1       0.5618416603E+02      32   72    1      -0.1967094217E+08      0.2406401828E+08      0.1802331128E+07      0.8026309570E+02
          2                17           0            29   67     1       0.3932891555E+02      32   72    1      -0.1432161167E+08      0.1702185613E+08      0.2406401828E+08      0.8026309570E+02
          3                17           0            29   67     1       0.2753024042E+02      32   72    1      -0.9448441205E+07      0.1135119643E+08      0.1702185613E+08      0.8026309570E+02
          4                17           0            29   67     1       0.1927116796E+02      32   72    1      -0.6037645113E+07      0.7377161013E+07      0.1135119643E+08      0.8026309570E+02
          5                17           0            29   67     1       0.1348981735E+02      32   72    1      -0.3650295245E+07      0.4691839194E+07      0.7377161013E+07      0.8026309570E+02
                                                   Max.-Head-Change                        Max.-Flux-Residual
  Residual-Control   Outer-Iter.   Inner-Iter.     Column Row Layer    Max.-Head-Change    Column Row Layer    Max.-Flux-Residual            L2-New               L2-Old           Solver-Max-Delh
          6                17           0            29   67     1       0.9442871981E+01      32   72    1      -0.1979251970E+07      0.3008537096E+07      0.4691839194E+07      0.8026309570E+02
          7                17           0            29   67     1       0.6610010274E+01      37   83    1      -0.9272160157E+06      0.2103308332E+07      0.3008537096E+07      0.8026309570E+02
          0                18           2            29   67     1       0.8025815463E+02      33  102    1      -0.6909235903E+06      0.1811594351E+07      0.2103308332E+07      0.8025815463E+02
          1                18           0            29   67     1       0.5618070728E+02      32   72    1      -0.1980325437E+08      0.2226635811E+08      0.1811594351E+07      0.8025815463E+02
          2                18           0            29   67     1       0.3932649443E+02      32   72    1      -0.1598806928E+08      0.1730130369E+08      0.2226635811E+08      0.8025815463E+02
          3                18           0            29   67     1       0.2752854563E+02      32   72    1      -0.1118808924E+08      0.1206472711E+08      0.1730130369E+08      0.8025815463E+02
          4                18           0            29   67     1       0.1926998161E+02      32   72    1      -0.7828513787E+07      0.8519926992E+07      0.1206472711E+08      0.8025815463E+02
          5                18           0            29   67     1       0.1348898690E+02      32   72    1      -0.5477012159E+07      0.5963776855E+07      0.8519926992E+07      0.8025815463E+02
          6                18           0            29   67     1       0.9442290669E+01      32   72    1      -0.3831059612E+07      0.4281590047E+07      0.5963776855E+07      0.8025815463E+02
          7                18           0            29   67     1       0.6609603356E+01      32   72    1      -0.2678941145E+07      0.3201367926E+07      0.4281590047E+07      0.8025815463E+02
                                                   Max.-Head-Change                        Max.-Flux-Residual
  Residual-Control   Outer-Iter.   Inner-Iter.     Column Row Layer    Max.-Head-Change    Column Row Layer    Max.-Flux-Residual            L2-New               L2-Old           Solver-Max-Delh
          8                18           0            29   67     1       0.4626722270E+01      32   72    1      -0.1872481898E+07      0.2548131125E+07      0.3201367926E+07      0.8025815463E+02
          9                18           0            29   67     1       0.3238705534E+01      32   72    1      -0.1307972030E+07      0.2172662375E+07      0.2548131125E+07      0.8025815463E+02
          0                19           2            29   67     1       0.8025372242E+02      32   72    1      -0.9128208113E+06      0.1973339899E+07      0.2172662375E+07      0.8025372242E+02
          1                19           0            29   67     1       0.5617760474E+02      30  103    1      -0.6192269204E+07      0.8127175066E+07      0.1973339899E+07      0.8025372242E+02
          2                19           0            29   67     1       0.3932432264E+02      30  103    1      -0.3943305985E+07      0.5113719720E+07      0.8127175066E+07      0.8025372242E+02
          3                19           0            29   67     1       0.2752702538E+02      30  103    1      -0.2369151596E+07      0.3462463056E+07      0.5113719720E+07      0.8025372242E+02
          4                19           0            29   67     1       0.1926891744E+02      29   67    1      -0.2029032510E+07      0.2808953569E+07      0.3462463056E+07      0.8025372242E+02
          5                19           0            29   67     1       0.1348824198E+02      29   67    1      -0.1430985535E+07      0.2179104210E+07      0.2808953569E+07      0.8025372242E+02
          0                20           2            58   10     1       0.1441126357E+02      29   67    1      -0.8486773060E+06      0.1873101265E+07      0.2179104210E+07      0.1441126357E+02
          1                20           0            58   10     1       0.1008788433E+02      30  103    1      -0.7466933918E+07      0.9272209645E+07      0.1873101265E+07      0.1441126357E+02
                                                   Max.-Head-Change                        Max.-Flux-Residual
  Residual-Control   Outer-Iter.   Inner-Iter.     Column Row Layer    Max.-Head-Change    Column Row Layer    Max.-Flux-Residual            L2-New               L2-Old           Solver-Max-Delh
          2                20           0            58   10     1       0.7061518911E+01      30  103    1      -0.5213466998E+07      0.6108470179E+07      0.9272209645E+07      0.1441126357E+02
          3                20           0            58   10     1       0.4943063153E+01      30  103    1      -0.3636160559E+07      0.4077951947E+07      0.6108470179E+07      0.1441126357E+02
          4                20           0            58   10     1       0.3460144148E+01      30  103    1      -0.2532105055E+07      0.2885671469E+07      0.4077951947E+07      0.1441126357E+02
          5                20           0            58   10     1       0.2422100863E+01      30  103    1      -0.1759295119E+07      0.2301000522E+07      0.2885671469E+07      0.1441126357E+02
          0                21           2            58   10     1       0.1440777406E+02      30  103    1      -0.1218342335E+07      0.2001859497E+07      0.2301000522E+07      0.1440777406E+02
          1                21           0            58   10     1       0.1008544167E+02      36   84    1      -0.6117476865E+07      0.6359460100E+07      0.2001859497E+07      0.1440777406E+02
          2                21           0            58   10     1       0.7059809047E+01      36   84    1      -0.3972374499E+07      0.4049964900E+07      0.6359460100E+07      0.1440777406E+02
          3                21           0            58   10     1       0.4941866249E+01      36   84    1      -0.2470912224E+07      0.2691344647E+07      0.4049964900E+07      0.1440777406E+02
          0                22           2            58   10     1       0.1440065955E+02      36   84    1      -0.1419942233E+07      0.1957178798E+07      0.2691344647E+07      0.1440065955E+02
          1                22           0            58   10     1       0.1008046152E+02      36   82    1      -0.2138764780E+07      0.3790061239E+07      0.1957178798E+07      0.1440065955E+02
                                                   Max.-Head-Change                        Max.-Flux-Residual
  Residual-Control   Outer-Iter.   Inner-Iter.     Column Row Layer    Max.-Head-Change    Column Row Layer    Max.-Flux-Residual            L2-New               L2-Old           Solver-Max-Delh
          0                23           2            58   10     1      -0.4405324683E+01      12  127    1      -0.1237496790E+07      0.1936867203E+07      0.3790061239E+07     -0.4405324683E+01
          0                24           2            14  126     1       0.1145563114E+01      24  110    1      -0.1199796398E+07      0.1239611274E+07      0.1936867203E+07      0.1145563114E+01
          0                25           2            60    6     1       0.8799077365E+00      14  126    1      -0.3068503154E+06      0.4531834189E+06      0.1239611274E+07      0.8799077365E+00
          0                26           2            60    6     1       0.8798303257E+00      14  126    1      -0.1534510714E+05      0.2660534863E+05      0.4531834189E+06      0.8798303257E+00
          1                26           0            60    6     1       0.6158812175E+00      26  109    1      -0.9049167692E+05      0.9597308641E+05      0.2660534863E+05      0.8798303257E+00
          0                27           2            60    6     1       0.8797761511E+00      31   99    1      -0.1536894067E+05      0.1776639345E+05      0.9597308641E+05      0.8797761511E+00
          1                27           0            60    6     1       0.6158432953E+00      26  109    1      -0.3942328537E+06      0.3945845125E+06      0.1776639345E+05      0.8797761511E+00
          2                27           0            60    6     1       0.4310902993E+00      26  109    1      -0.2621361797E+06      0.2624428472E+06      0.3945845125E+06      0.8797761511E+00
          3                27           0            60    6     1       0.3017632044E+00      26  109    1      -0.1696688208E+06      0.1700956529E+06      0.2624428472E+06      0.8797761511E+00
          4                27           0            60    6     1       0.2112342395E+00      26  109    1      -0.1049418233E+06      0.1057303907E+06      0.1700956529E+06      0.8797761511E+00
                                                   Max.-Head-Change                        Max.-Flux-Residual
  Residual-Control   Outer-Iter.   Inner-Iter.     Column Row Layer    Max.-Head-Change    Column Row Layer    Max.-Flux-Residual            L2-New               L2-Old           Solver-Max-Delh
          5                27           0            60    6     1       0.1478639651E+00      26  109    1      -0.5963300057E+05      0.6125991583E+05      0.1057303907E+06      0.8797761511E+00
          6                27           0            60    6     1       0.1035047738E+00      26  109    1      -0.2791686182E+05      0.3170413894E+05      0.6125991583E+05      0.8797761511E+00
          0                28           2            60    6     1       0.8797670471E+00      31   99    1      -0.1365120740E+05      0.1681191925E+05      0.3170413894E+05      0.8797670471E+00
          0                29           2            60    6     1       0.8796896735E+00      31   99    1      -0.6824277118E+03      0.8419340747E+03      0.1681191925E+05      0.8796896735E+00
          1                29           0            60    6     1       0.6157827610E+00      15  126    1      -0.3154695431E+06      0.3157485258E+06      0.8419340747E+03      0.8796896735E+00
          2                29           0            60    6     1       0.4310479253E+00      15  126    1      -0.2138699356E+06      0.2140224390E+06      0.3157485258E+06      0.8796896735E+00
          3                29           0            60    6     1       0.3017335426E+00      15  126    1      -0.1427503344E+06      0.1428237793E+06      0.2140224390E+06      0.8796896735E+00
          4                29           0            60    6     1       0.2112134762E+00      15  126    1      -0.9296667450E+05      0.9299215932E+05      0.1428237793E+06      0.8796896735E+00
          5                29           0            60    6     1       0.1478494308E+00      15  126    1      -0.5811814268E+05      0.5812303448E+05      0.9299215932E+05      0.8796896735E+00
          6                29           0            60    6     1       0.1034945998E+00      15  126    1      -0.3372418527E+05      0.3373160177E+05      0.5812303448E+05      0.8796896735E+00
                                                   Max.-Head-Change                        Max.-Flux-Residual
  Residual-Control   Outer-Iter.   Inner-Iter.     Column Row Layer    Max.-Head-Change    Column Row Layer    Max.-Flux-Residual            L2-New               L2-Old           Solver-Max-Delh
          7                29           0            60    6     1       0.7244621864E-01      15  126    1      -0.1664842245E+05      0.1666519517E+05      0.3373160177E+05      0.8796896735E+00
          8                29           0            60    6     1       0.5071235219E-01      15  126    1      -0.4695392142E+04      0.4759025998E+04      0.1666519517E+05      0.8796896735E+00
          0                30           2            60    6     1       0.8796852139E+00      31   99    1      -0.6450533596E+03      0.7959941218E+03      0.4759025998E+04      0.8796852139E+00
          1                30           0            60    6     1       0.6157796392E+00      15  126    1      -0.3339910439E+06      0.3342981261E+06      0.7959941218E+03      0.8796852139E+00
          2                30           0            60    6     1       0.4310457401E+00      15  126    1      -0.2326919692E+06      0.2328680104E+06      0.3342981261E+06      0.8796852139E+00
          3                30           0            60    6     1       0.3017320129E+00      15  126    1      -0.1617827402E+06      0.1618774327E+06      0.2328680104E+06      0.8796852139E+00
          4                30           0            60    6     1       0.2112124055E+00      15  126    1      -0.1121463405E+06      0.1121894744E+06      0.1618774327E+06      0.8796852139E+00
          5                30           0            60    6     1       0.1478486813E+00      15  126    1      -0.7740089066E+05      0.7741501556E+05      0.1121894744E+06      0.8796852139E+00
          6                30           0            60    6     1       0.1034940752E+00      15  126    1      -0.5307909053E+05      0.5308349192E+05      0.7741501556E+05      0.8796852139E+00
          7                30           0            60    6     1       0.7244585137E-01      15  126    1      -0.3605383777E+05      0.3606076281E+05      0.5308349192E+05      0.8796852139E+00
                                                   Max.-Head-Change                        Max.-Flux-Residual
  Residual-Control   Outer-Iter.   Inner-Iter.     Column Row Layer    Max.-Head-Change    Column Row Layer    Max.-Flux-Residual            L2-New               L2-Old           Solver-Max-Delh
          8                30           0            60    6     1       0.5071209510E-01      15  126    1      -0.2413616448E+05      0.2414730064E+05      0.3606076281E+05      0.8796852139E+00
          9                30           0            60    6     1       0.3549846596E-01      15  126    1      -0.1579379501E+05      0.1581168254E+05      0.2414730064E+05      0.8796852139E+00
         10                30           0            60    6     1       0.2484892575E-01      15  126    1      -0.9954137314E+04      0.9983484534E+04      0.1581168254E+05      0.8796852139E+00
         11                30           0            60    6     1       0.1739424773E-01      15  126    1      -0.5866377400E+04      0.5917223954E+04      0.9983484534E+04      0.8796852139E+00
         12                30           0            60    6     1       0.1217597320E-01      15  126    1      -0.3004945707E+04      0.3104638924E+04      0.5917223954E+04      0.8796852139E+00
         13                30           0            60    6     1       0.8523181097E-02      15  126    1      -0.1001943654E+04      0.1272781978E+04      0.3104638924E+04      0.8796852139E+00
          0                31           2            60    6     1       0.8796844643E+00      31   99    1      -0.6391158082E+03      0.7886965473E+03      0.1272781978E+04      0.8796844643E+00
          1                31           0            60    6     1       0.6157791146E+00      15  126    1      -0.3370947420E+06      0.3374066473E+06      0.7886965473E+03      0.8796844643E+00
          2                31           0            60    6     1       0.4310453728E+00      15  126    1      -0.2358460289E+06      0.2360260820E+06      0.3374066473E+06      0.8796844643E+00
          3                31           0            60    6     1       0.3017317559E+00      15  126    1      -0.1649720530E+06      0.1650703918E+06      0.2360260820E+06      0.8796844643E+00
                                                   Max.-Head-Change                        Max.-Flux-Residual
  Residual-Control   Outer-Iter.   Inner-Iter.     Column Row Layer    Max.-Head-Change    Column Row Layer    Max.-Flux-Residual            L2-New               L2-Old           Solver-Max-Delh
          4                31           0            60    6     1       0.2112122255E+00      15  126    1      -0.1153603304E+06      0.1154066477E+06      0.1650703918E+06      0.8796844643E+00
          5                31           0            60    6     1       0.1478485553E+00      15  126    1      -0.8063215444E+05      0.8064853103E+05      0.1154066477E+06      0.8796844643E+00
          6                31           0            60    6     1       0.1034939870E+00      15  126    1      -0.5632244605E+05      0.5632716126E+05      0.8064853103E+05      0.8796844643E+00
          7                31           0            60    6     1       0.7244578965E-01      15  126    1      -0.3930565749E+05      0.3931189366E+05      0.5632716126E+05      0.8796844643E+00
          8                31           0            60    6     1       0.5071205189E-01      15  126    1      -0.2739390915E+05      0.2740354220E+05      0.3931189366E+05      0.8796844643E+00
          9                31           0            60    6     1       0.3549843572E-01      15  126    1      -0.1905568714E+05      0.1907024446E+05      0.2740354220E+05      0.8796844643E+00
         10                31           0            60    6     1       0.2484890458E-01      15  126    1      -0.1321893265E+05      0.1324064198E+05      0.1907024446E+05      0.8796844643E+00
         11                31           0            60    6     1       0.1739423291E-01      15  126    1      -0.9133204993E+04      0.9165349833E+04      0.1324064198E+05      0.8796844643E+00
         12                31           0            60    6     1       0.1217596283E-01      15  126    1      -0.6273195877E+04      0.6320675392E+04      0.9165349833E+04      0.8796844643E+00
         13                31           0            60    6     1       0.8523173835E-02      15  126    1      -0.4271189627E+04      0.4341414779E+04      0.6320675392E+04      0.8796844643E+00
                                                   Max.-Head-Change                        Max.-Flux-Residual
  Residual-Control   Outer-Iter.   Inner-Iter.     Column Row Layer    Max.-Head-Change    Column Row Layer    Max.-Flux-Residual            L2-New               L2-Old           Solver-Max-Delh
         14                31           0            60    6     1       0.5966221583E-02      15  126    1      -0.2869785324E+04      0.2974108618E+04      0.4341414779E+04      0.8796844643E+00
         15                31           0            60    6     1       0.4176355037E-02      15  126    1      -0.1888802351E+04      0.2044657193E+04      0.2974108618E+04      0.8796844643E+00
         16                31           0            60    6     1       0.2923448476E-02      15  126    1      -0.1202114294E+04      0.1435447397E+04      0.2044657193E+04      0.8796844643E+00
         17                31           0            60    6     1       0.2046413898E-02      15  126    1      -0.7214326675E+03      0.1066567166E+04      0.1435447397E+04      0.8796844643E+00
         18                31           0            60    6     1       0.1432489704E-02      31   99    1      -0.6377033096E+03      0.8754778821E+03      0.1066567166E+04      0.8796844643E+00
          0                32           2            60    6     1       0.8796843384E+00      31   99    1      -0.6381270591E+03      0.8008854160E+03      0.8754778821E+03      0.8796843384E+00
          1                32           0            60    6     1       0.6157790264E+00      48   29    1      -0.1422792365E+05      0.1453463272E+05      0.8008854160E+03      0.8796843384E+00
          2                32           0            60    6     1       0.4310453111E+00      48   29    1      -0.9216479347E+04      0.9245269471E+04      0.1453463272E+05      0.8796843384E+00
          3                32           0            60    6     1       0.3017317126E+00      48   29    1      -0.5708498330E+04      0.5724624624E+04      0.9245269471E+04      0.8796843384E+00
          4                32           0            60    6     1       0.2112121953E+00      48   29    1      -0.3252926328E+04      0.3297558440E+04      0.5724624624E+04      0.8796843384E+00
                                                   Max.-Head-Change                        Max.-Flux-Residual
  Residual-Control   Outer-Iter.   Inner-Iter.     Column Row Layer    Max.-Head-Change    Column Row Layer    Max.-Flux-Residual            L2-New               L2-Old           Solver-Max-Delh
          5                32           0            60    6     1       0.1478485342E+00      48   29    1      -0.1534033144E+04      0.1654104863E+04      0.3297558440E+04      0.8796843384E+00
          0                33           2            60    6     1       0.8796713369E+00      31   99    1      -0.5362341886E+03      0.7502200684E+03      0.1654104863E+04      0.8796713369E+00
          1                33           0            60    6     1       0.6157699253E+00      64   47    1      -0.3791530936E+04      0.4819042380E+04      0.7502200684E+03      0.8796713369E+00
          2                33           0            60    6     1       0.4310389404E+00      42   47    1      -0.1501320509E+04      0.1662311993E+04      0.4819042380E+04      0.8796713369E+00
          0                34           2            60    6     1       0.8796334345E+00      42   47    1      -0.4705739412E+03      0.6192107746E+03      0.1662311993E+04      0.8796334345E+00
          1                34           0            60    6     1       0.6157433937E+00      64   47    1      -0.8867042395E+04      0.8867224409E+04      0.6192107746E+03      0.8796334345E+00
          2                34           0            60    6     1       0.4310203682E+00      64   47    1      -0.5750647795E+04      0.5754541205E+04      0.8867224409E+04      0.8796334345E+00
          3                34           0            60    6     1       0.3017142526E+00      64   47    1      -0.3569183167E+04      0.3584688786E+04      0.5754541205E+04      0.8796334345E+00
          4                34           0            60    6     1       0.2111999732E+00      64   47    1      -0.2042163615E+04      0.2084634248E+04      0.3584688786E+04      0.8796334345E+00
          5                34           0            60    6     1       0.1478399787E+00      64   47    1      -0.9732527218E+03      0.1084616854E+04      0.2084634248E+04      0.8796334345E+00
                                                   Max.-Head-Change                        Max.-Flux-Residual
  Residual-Control   Outer-Iter.   Inner-Iter.     Column Row Layer    Max.-Head-Change    Column Row Layer    Max.-Flux-Residual            L2-New               L2-Old           Solver-Max-Delh
          0                35           2            60    6     1       0.8796204353E+00      42   47    1      -0.3954390573E+03      0.5673539855E+03      0.1084616854E+04      0.8796204353E+00

    ------------------------------------------------
       NWT REQUIRED           35 OUTER ITERATIONS 
       AND A TOTAL OF         70 INNER ITERATIONS.
    ------------------------------------------------

 OUTPUT CONTROL FOR STRESS PERIOD    1   TIME STEP    1
    SAVE HEAD FOR ALL LAYERS
    SAVE DRAWDOWN FOR ALL LAYERS
    SAVE BUDGET
    PRINT BUDGET
 UBDSV1 SAVING "         STORAGE" ON UNIT   9 AT TIME STEP  1, STRESS PERIOD   1
 UBDSV2 SAVING "   CONSTANT HEAD" ON UNIT   9 AT TIME STEP  1, STRESS PERIOD   1
 UBDSV1 SAVING "FLOW RIGHT FACE " ON UNIT   9 AT TIME STEP  1, STRESS PERIOD   1
 UBDSV1 SAVING "FLOW FRONT FACE " ON UNIT   9 AT TIME STEP  1, STRESS PERIOD   1
 UBDSV4 SAVING "   RIVER LEAKAGE" ON UNIT   9 AT TIME STEP  1, STRESS PERIOD   1
 UBDSV3 SAVING "        RECHARGE" ON UNIT   9 AT TIME STEP  1, STRESS PERIOD   1

 HEAD WILL BE SAVED ON UNIT   37 AT END OF TIME STEP    1, STRESS PERIOD    1

 DRAWDOWN WILL BE SAVED ON UNIT   38 AT END OF TIME STEP    1, STRESS PERIOD    1
1
  VOLUMETRIC BUDGET FOR ENTIRE MODEL AT END OF TIME STEP    1, STRESS PERIOD   1
  ------------------------------------------------------------------------------

     CUMULATIVE VOLUMES      L**3       RATES FOR THIS TIME STEP      L**3/T
     ------------------                 ------------------------

           IN:                                      IN:
           ---                                      ---
             STORAGE =      955762.5625               STORAGE =      955762.5625
       CONSTANT HEAD =           0.0000         CONSTANT HEAD =           0.0000
       RIVER LEAKAGE =     4320607.0000         RIVER LEAKAGE =     4320607.0000
            RECHARGE =         532.8450              RECHARGE =         532.8450

            TOTAL IN =     5276902.5000              TOTAL IN =     5276902.5000

          OUT:                                     OUT:
          ----                                     ----
             STORAGE =     5276635.5000               STORAGE =     5276635.5000
       CONSTANT HEAD =           0.0000         CONSTANT HEAD =           0.0000
       RIVER LEAKAGE =           0.0000         RIVER LEAKAGE =           0.0000
            RECHARGE =           0.0000              RECHARGE =           0.0000

           TOTAL OUT =     5276635.5000             TOTAL OUT =     5276635.5000

            IN - OUT =         267.0000              IN - OUT =         267.0000

 PERCENT DISCREPANCY =           0.01     PERCENT DISCREPANCY =           0.01






         TIME SUMMARY AT END OF TIME STEP    1 IN STRESS PERIOD    1
                    SECONDS     MINUTES      HOURS       DAYS        YEARS
                    -----------------------------------------------------------
   TIME STEP LENGTH  86400.      1440.0      24.000      1.0000     2.73785E-03
 STRESS PERIOD TIME  86400.      1440.0      24.000      1.0000     2.73785E-03
         TOTAL TIME  86400.      1440.0      24.000      1.0000     2.73785E-03
1
 
 SOLVING FOR HEAD 
                                                   Max.-Head-Change                        Max.-Flux-Residual
  Residual-Control   Outer-Iter.   Inner-Iter.     Column Row Layer    Max.-Head-Change    Column Row Layer    Max.-Flux-Residual            L2-New               L2-Old           Solver-Max-Delh
          0                 1           2            41   65     1       0.3183903677E+01      34  103    1       0.1027686432E+07      0.1406342244E+07      0.5444544769E+02      0.3183903677E+01
          0                 2           2            60    6     1       0.7042955805E+00      34  103    1      -0.1027893780E+06      0.1487335108E+06      0.1406342244E+07      0.7042955805E+00
          0                 3           2            60    6     1       0.7042459812E+00      34  103    1      -0.5139620991E+04      0.7437722014E+04      0.1487335108E+06      0.7042459812E+00
          0                 4           2            60    6     1       0.7041963924E+00      44   35    1      -0.5429790491E+03      0.6585683799E+03      0.7437722014E+04      0.7041963924E+00
          1                 4           0            60    6     1       0.4929374663E+00      58   39    1      -0.1391150388E+05      0.1939152416E+05      0.6585683799E+03      0.7041963924E+00
          2                 4           0            60    6     1       0.3450562205E+00      58   39    1      -0.9012967472E+04      0.1105171818E+05      0.1939152416E+05      0.7041963924E+00
          3                 4           0            60    6     1       0.2415393502E+00      58   39    1      -0.5584020651E+04      0.6036235921E+04      0.1105171818E+05      0.7041963924E+00
          4                 4           0            60    6     1       0.1690775423E+00      58   39    1      -0.3183771933E+04      0.3416151356E+04      0.6036235921E+04      0.7041963924E+00
          5                 4           0            60    6     1       0.1183542776E+00      58   39    1      -0.1503604728E+04      0.1748986875E+04      0.3416151356E+04      0.7041963924E+00
          6                 4           0            60    6     1       0.8284799290E-01      44   35    1      -0.4562834974E+03      0.7789805421E+03      0.1748986875E+04      0.7041963924E+00
                                                   Max.-Head-Change                        Max.-Flux-Residual
  Residual-Control   Outer-Iter.   Inner-Iter.     Column Row Layer    Max.-Head-Change    Column Row Layer    Max.-Flux-Residual            L2-New               L2-Old           Solver-Max-Delh
          0                 5           2            60    6     1       0.7041905592E+00      44   35    1      -0.4822921623E+03      0.6297327728E+03      0.7789805421E+03      0.7041905592E+00
          1                 5           0            60    6     1       0.4929333830E+00      58   39    1      -0.1583106612E+05      0.2234715419E+05      0.6297327728E+03      0.7041905592E+00
          2                 5           0            60    6     1       0.3450533622E+00      58   39    1      -0.1093295397E+05      0.1390711075E+05      0.2234715419E+05      0.7041905592E+00
          3                 5           0            60    6     1       0.2415373495E+00      58   39    1      -0.7504304114E+04      0.8394404122E+04      0.1390711075E+05      0.7041905592E+00
          4                 5           0            60    6     1       0.1690761417E+00      58   39    1      -0.5104263271E+04      0.5195832330E+04      0.8394404122E+04      0.7041905592E+00
          5                 5           0            60    6     1       0.1183532972E+00      58   39    1      -0.3424241577E+04      0.3458608275E+04      0.5195832330E+04      0.7041905592E+00
          6                 5           0            60    6     1       0.8284730663E-01      58   39    1      -0.2248229776E+04      0.2309709543E+04      0.3458608275E+04      0.7041905592E+00
          7                 5           0            60    6     1       0.5799311365E-01      58   39    1      -0.1425023177E+04      0.1530912949E+04      0.2309709543E+04      0.7041905592E+00
          8                 5           0            60    6     1       0.4059517887E-01      58   39    1      -0.8487793762E+03      0.1028328020E+04      0.1530912949E+04      0.7041905592E+00
          9                 5           0            60    6     1       0.2841662472E-01      44   35    1      -0.4558788637E+03      0.7434858146E+03      0.1028328020E+04      0.7041905592E+00
                                                   Max.-Head-Change                        Max.-Flux-Residual
  Residual-Control   Outer-Iter.   Inner-Iter.     Column Row Layer    Max.-Head-Change    Column Row Layer    Max.-Flux-Residual            L2-New               L2-Old           Solver-Max-Delh
          0                 6           2            60    6     1       0.7041885584E+00      44   35    1      -0.4638028535E+03      0.6271934541E+03      0.7434858146E+03      0.7041885584E+00
          1                 6           0            60    6     1       0.4929319825E+00      42   46    1      -0.1184321962E+05      0.1674207855E+05      0.6271934541E+03      0.7041885584E+00
          2                 6           0            60    6     1       0.3450523819E+00      42   46    1      -0.6999504931E+04      0.9553103704E+04      0.1674207855E+05      0.7041885584E+00
          3                 6           0            60    6     1       0.2415366632E+00      42   46    1      -0.3608932704E+04      0.4650781752E+04      0.9553103704E+04      0.7041885584E+00
          4                 6           0            60    6     1       0.1690756614E+00      42   46    1      -0.1235545905E+04      0.1689913194E+04      0.4650781752E+04      0.7041885584E+00

    ------------------------------------------------
       NWT REQUIRED            6 OUTER ITERATIONS 
       AND A TOTAL OF         12 INNER ITERATIONS.
    ------------------------------------------------

 OUTPUT CONTROL FOR STRESS PERIOD    1   TIME STEP    2
    SAVE HEAD FOR ALL LAYERS
    SAVE DRAWDOWN FOR ALL LAYERS
    SAVE BUDGET
    PRINT BUDGET
 UBDSV1 SAVING "         STORAGE" ON UNIT   9 AT TIME STEP  2, STRESS PERIOD   1
 UBDSV2 SAVING "   CONSTANT HEAD" ON UNIT   9 AT TIME STEP  2, STRESS PERIOD   1
 UBDSV1 SAVING "FLOW RIGHT FACE " ON UNIT   9 AT TIME STEP  2, STRESS PERIOD   1
 UBDSV1 SAVING "FLOW FRONT FACE " ON UNIT   9 AT TIME STEP  2, STRESS PERIOD   1
 UBDSV4 SAVING "   RIVER LEAKAGE" ON UNIT   9 AT TIME STEP  2, STRESS PERIOD   1
 UBDSV3 SAVING "        RECHARGE" ON UNIT   9 AT TIME STEP  2, STRESS PERIOD   1

 HEAD WILL BE SAVED ON UNIT   37 AT END OF TIME STEP    2, STRESS PERIOD    1

 DRAWDOWN WILL BE SAVED ON UNIT   38 AT END OF TIME STEP    2, STRESS PERIOD    1
1
  VOLUMETRIC BUDGET FOR ENTIRE MODEL AT END OF TIME STEP    2, STRESS PERIOD   1
  ------------------------------------------------------------------------------

     CUMULATIVE VOLUMES      L**3       RATES FOR THIS TIME STEP      L**3/T
     ------------------                 ------------------------

           IN:                                      IN:
           ---                                      ---
             STORAGE =     1911109.7500               STORAGE =      955347.1250
       CONSTANT HEAD =           0.0000         CONSTANT HEAD =           0.0000
       RIVER LEAKAGE =     8641214.0000         RIVER LEAKAGE =     4320607.0000
            RECHARGE =         743.0963              RECHARGE =         210.2513

            TOTAL IN =    10553067.0000              TOTAL IN =     5276164.5000

          OUT:                                     OUT:
          ----                                     ----
             STORAGE =    10554098.0000               STORAGE =     5277463.0000
       CONSTANT HEAD =           0.0000         CONSTANT HEAD =           0.0000
       RIVER LEAKAGE =           0.0000         RIVER LEAKAGE =           0.0000
            RECHARGE =           0.0000              RECHARGE =           0.0000

           TOTAL OUT =    10554098.0000             TOTAL OUT =     5277463.0000

            IN - OUT =       -1031.0000              IN - OUT =       -1298.5000

 PERCENT DISCREPANCY =          -0.01     PERCENT DISCREPANCY =          -0.02






         TIME SUMMARY AT END OF TIME STEP    2 IN STRESS PERIOD    1
                    SECONDS     MINUTES      HOURS       DAYS        YEARS
                    -----------------------------------------------------------
   TIME STEP LENGTH  86400.      1440.0      24.000      1.0000     2.73785E-03
 STRESS PERIOD TIME 1.72800E+05  2880.0      48.000      2.0000     5.47570E-03
         TOTAL TIME 1.72800E+05  2880.0      48.000      2.0000     5.47570E-03
1
 
 SOLVING FOR HEAD 
                                                   Max.-Head-Change                        Max.-Flux-Residual
  Residual-Control   Outer-Iter.   Inner-Iter.     Column Row Layer    Max.-Head-Change    Column Row Layer    Max.-Flux-Residual            L2-New               L2-Old           Solver-Max-Delh
          0                 1           2            41   65     1       0.3182918901E+01      34  103    1       0.1027619128E+07      0.1405958859E+07      0.4843955743E+03      0.3182918901E+01
          0                 2           2            62   28     1       0.6159473945E+00      34  103    1      -0.1027826426E+06      0.1424406802E+06      0.1405958859E+07      0.6159473945E+00
          0                 3           2            62   28     1       0.6118645353E+00      34  103    1      -0.5139284188E+04      0.7122799848E+04      0.1424406802E+06      0.6118645353E+00
          1                 3           0            62   28     1       0.4283051674E+00      58   53    1      -0.1403536675E+05      0.1403989951E+05      0.7122799848E+04      0.6118645353E+00
          2                 3           0            62   28     1       0.2998136121E+00      58   53    1      -0.8287379192E+04      0.8624037623E+04      0.1403989951E+05      0.6118645353E+00
          0                 4           2            62   28     1       0.6097982028E+00      58   53    1      -0.4263787972E+04      0.5716033911E+04      0.8624037623E+04      0.6097982028E+00

    ------------------------------------------------
       NWT REQUIRED            4 OUTER ITERATIONS 
       AND A TOTAL OF          8 INNER ITERATIONS.
    ------------------------------------------------

 OUTPUT CONTROL FOR STRESS PERIOD    1   TIME STEP    3
    SAVE HEAD FOR ALL LAYERS
    SAVE DRAWDOWN FOR ALL LAYERS
    SAVE BUDGET
    PRINT BUDGET
 UBDSV1 SAVING "         STORAGE" ON UNIT   9 AT TIME STEP  3, STRESS PERIOD   1
 UBDSV2 SAVING "   CONSTANT HEAD" ON UNIT   9 AT TIME STEP  3, STRESS PERIOD   1
 UBDSV1 SAVING "FLOW RIGHT FACE " ON UNIT   9 AT TIME STEP  3, STRESS PERIOD   1
 UBDSV1 SAVING "FLOW FRONT FACE " ON UNIT   9 AT TIME STEP  3, STRESS PERIOD   1
 UBDSV4 SAVING "   RIVER LEAKAGE" ON UNIT   9 AT TIME STEP  3, STRESS PERIOD   1
 UBDSV3 SAVING "        RECHARGE" ON UNIT   9 AT TIME STEP  3, STRESS PERIOD   1

 HEAD WILL BE SAVED ON UNIT   37 AT END OF TIME STEP    3, STRESS PERIOD    1

 DRAWDOWN WILL BE SAVED ON UNIT   38 AT END OF TIME STEP    3, STRESS PERIOD    1
1
  VOLUMETRIC BUDGET FOR ENTIRE MODEL AT END OF TIME STEP    3, STRESS PERIOD   1
  ------------------------------------------------------------------------------

     CUMULATIVE VOLUMES      L**3       RATES FOR THIS TIME STEP      L**3/T
     ------------------                 ------------------------

           IN:                                      IN:
           ---                                      ---
             STORAGE =     2865785.5000               STORAGE =      954675.7500
       CONSTANT HEAD =           0.0000         CONSTANT HEAD =           0.0000
       RIVER LEAKAGE =    12961821.0000         RIVER LEAKAGE =     4320607.0000
            RECHARGE =         846.9857              RECHARGE =         103.8894

            TOTAL IN =    15828454.0000              TOTAL IN =     5275387.0000

          OUT:                                     OUT:
          ----                                     ----
             STORAGE =    15829940.0000               STORAGE =     5275842.5000
       CONSTANT HEAD =           0.0000         CONSTANT HEAD =           0.0000
       RIVER LEAKAGE =         258.3994         RIVER LEAKAGE =         258.3994
            RECHARGE =           0.0000              RECHARGE =           0.0000

           TOTAL OUT =    15830198.0000             TOTAL OUT =     5276101.0000

            IN - OUT =       -1744.0000              IN - OUT =        -714.0000

 PERCENT DISCREPANCY =          -0.01     PERCENT DISCREPANCY =          -0.01






         TIME SUMMARY AT END OF TIME STEP    3 IN STRESS PERIOD    1
                    SECONDS     MINUTES      HOURS       DAYS        YEARS
                    -----------------------------------------------------------
   TIME STEP LENGTH  86400.      1440.0      24.000      1.0000     2.73785E-03
 STRESS PERIOD TIME 2.59200E+05  4320.0      72.000      3.0000     8.21355E-03
         TOTAL TIME 2.59200E+05  4320.0      72.000      3.0000     8.21355E-03
1
 
 SOLVING FOR HEAD 
                                                   Max.-Head-Change                        Max.-Flux-Residual
  Residual-Control   Outer-Iter.   Inner-Iter.     Column Row Layer    Max.-Head-Change    Column Row Layer    Max.-Flux-Residual            L2-New               L2-Old           Solver-Max-Delh
          0                 1           2            11  126     1       0.5478080524E+01      34  103    1       0.1027538563E+07      0.1406043571E+07      0.2865921581E+03      0.5478080524E+01
          1                 1           0            11  126     1       0.3834656301E+01      11  126    1      -0.2628669576E+07      0.2632419738E+07      0.1406043571E+07      0.5478080524E+01
          0                 2           2            11  126     1      -0.9353717099E+00      11  126    1      -0.9848227086E+06      0.1037381943E+07      0.2632419738E+07     -0.9353717099E+00
          0                 3           2            62   28     1       0.8121694232E+00      11  126    1      -0.4925860823E+05      0.5907145951E+05      0.1037381943E+07      0.8121694232E+00
          0                 4           2            62   28     1       0.8047498916E+00      11  126    1      -0.2462480402E+04      0.2954087943E+04      0.5907145951E+05      0.8047498916E+00

    ------------------------------------------------
       NWT REQUIRED            4 OUTER ITERATIONS 
       AND A TOTAL OF          8 INNER ITERATIONS.
    ------------------------------------------------

 OUTPUT CONTROL FOR STRESS PERIOD    1   TIME STEP    4
    SAVE HEAD FOR ALL LAYERS
    SAVE DRAWDOWN FOR ALL LAYERS
    SAVE BUDGET
    PRINT BUDGET
 UBDSV1 SAVING "         STORAGE" ON UNIT   9 AT TIME STEP  4, STRESS PERIOD   1
 UBDSV2 SAVING "   CONSTANT HEAD" ON UNIT   9 AT TIME STEP  4, STRESS PERIOD   1
 UBDSV1 SAVING "FLOW RIGHT FACE " ON UNIT   9 AT TIME STEP  4, STRESS PERIOD   1
 UBDSV1 SAVING "FLOW FRONT FACE " ON UNIT   9 AT TIME STEP  4, STRESS PERIOD   1
 UBDSV4 SAVING "   RIVER LEAKAGE" ON UNIT   9 AT TIME STEP  4, STRESS PERIOD   1
 UBDSV3 SAVING "        RECHARGE" ON UNIT   9 AT TIME STEP  4, STRESS PERIOD   1

 HEAD WILL BE SAVED ON UNIT   37 AT END OF TIME STEP    4, STRESS PERIOD    1

 DRAWDOWN WILL BE SAVED ON UNIT   38 AT END OF TIME STEP    4, STRESS PERIOD    1
1
  VOLUMETRIC BUDGET FOR ENTIRE MODEL AT END OF TIME STEP    4, STRESS PERIOD   1
  ------------------------------------------------------------------------------

     CUMULATIVE VOLUMES      L**3       RATES FOR THIS TIME STEP      L**3/T
     ------------------                 ------------------------

           IN:                                      IN:
           ---                                      ---
             STORAGE =     3814209.5000               STORAGE =      948423.8750
       CONSTANT HEAD =           0.0000         CONSTANT HEAD =           0.0000
       RIVER LEAKAGE =    17337630.0000         RIVER LEAKAGE =     4375808.5000
            RECHARGE =         905.0384              RECHARGE =          58.0527

            TOTAL IN =    21152746.0000              TOTAL IN =     5324290.5000

          OUT:                                     OUT:
          ----                                     ----
             STORAGE =    21154364.0000               STORAGE =     5324424.5000
       CONSTANT HEAD =           0.0000         CONSTANT HEAD =           0.0000
       RIVER LEAKAGE =         325.6039         RIVER LEAKAGE =          67.2045
            RECHARGE =           0.0000              RECHARGE =           0.0000

           TOTAL OUT =    21154690.0000             TOTAL OUT =     5324491.5000

            IN - OUT =       -1944.0000              IN - OUT =        -201.0000

 PERCENT DISCREPANCY =          -0.01     PERCENT DISCREPANCY =          -0.00






         TIME SUMMARY AT END OF TIME STEP    4 IN STRESS PERIOD    1
                    SECONDS     MINUTES      HOURS       DAYS        YEARS
                    -----------------------------------------------------------
   TIME STEP LENGTH  86400.      1440.0      24.000      1.0000     2.73785E-03
 STRESS PERIOD TIME 3.45600E+05  5760.0      96.000      4.0000     1.09514E-02
         TOTAL TIME 3.45600E+05  5760.0      96.000      4.0000     1.09514E-02
1
 
 SOLVING FOR HEAD 
                                                   Max.-Head-Change                        Max.-Flux-Residual
  Residual-Control   Outer-Iter.   Inner-Iter.     Column Row Layer    Max.-Head-Change    Column Row Layer    Max.-Flux-Residual            L2-New               L2-Old           Solver-Max-Delh
          0                 1           2            41   65     1       0.3180940513E+01      34  103    1       0.1027444769E+07      0.1398282006E+07      0.1643046232E+03      0.3180940513E+01
          0                 2           2            62   28     1       0.9012425445E+00      34  103    1      -0.1027651920E+06      0.1447606205E+06      0.1398282006E+07      0.9012425445E+00
          1                 2           0            62   28     1       0.6308697704E+00      33  103    1      -0.3507507764E+06      0.3508253106E+06      0.1447606205E+06      0.9012425445E+00
          0                 3           2            62   28     1       0.8947656823E+00      33  103    1      -0.1388638768E+06      0.1470872940E+06      0.3508253106E+06      0.8947656823E+00
          0                 4           2            62   28     1       0.8855809066E+00      40   52    1      -0.1026192182E+05      0.1262527211E+05      0.1470872940E+06      0.8855809066E+00
          0                 5           2            62   28     1       0.8764920171E+00      40   52    1      -0.5131908486E+03      0.6317018562E+03      0.1262527211E+05      0.8764920171E+00
          1                 5           0            62   28     1       0.6135444015E+00      62   28    1      -0.4204410441E+05      0.4204412160E+05      0.6317018562E+03      0.8764920171E+00
          2                 5           0            62   28     1       0.4294810737E+00      62   28    1      -0.1573716335E+05      0.1573859850E+05      0.4204412160E+05      0.8764920171E+00

    ------------------------------------------------
       NWT REQUIRED            5 OUTER ITERATIONS 
       AND A TOTAL OF         10 INNER ITERATIONS.
    ------------------------------------------------

 OUTPUT CONTROL FOR STRESS PERIOD    1   TIME STEP    5
    SAVE HEAD FOR ALL LAYERS
    SAVE DRAWDOWN FOR ALL LAYERS
    SAVE BUDGET
    PRINT BUDGET
 UBDSV1 SAVING "         STORAGE" ON UNIT   9 AT TIME STEP  5, STRESS PERIOD   1
 UBDSV2 SAVING "   CONSTANT HEAD" ON UNIT   9 AT TIME STEP  5, STRESS PERIOD   1
 UBDSV1 SAVING "FLOW RIGHT FACE " ON UNIT   9 AT TIME STEP  5, STRESS PERIOD   1
 UBDSV1 SAVING "FLOW FRONT FACE " ON UNIT   9 AT TIME STEP  5, STRESS PERIOD   1
 UBDSV4 SAVING "   RIVER LEAKAGE" ON UNIT   9 AT TIME STEP  5, STRESS PERIOD   1
 UBDSV3 SAVING "        RECHARGE" ON UNIT   9 AT TIME STEP  5, STRESS PERIOD   1

 HEAD WILL BE SAVED ON UNIT   37 AT END OF TIME STEP    5, STRESS PERIOD    1

 DRAWDOWN WILL BE SAVED ON UNIT   38 AT END OF TIME STEP    5, STRESS PERIOD    1
1
  VOLUMETRIC BUDGET FOR ENTIRE MODEL AT END OF TIME STEP    5, STRESS PERIOD   1
  ------------------------------------------------------------------------------

     CUMULATIVE VOLUMES      L**3       RATES FOR THIS TIME STEP      L**3/T
     ------------------                 ------------------------

           IN:                                      IN:
           ---                                      ---
             STORAGE =     4762790.0000               STORAGE =      948580.6250
       CONSTANT HEAD =           0.0000         CONSTANT HEAD =           0.0000
       RIVER LEAKAGE =    21496214.0000         RIVER LEAKAGE =     4158583.2500
            RECHARGE =         939.9976              RECHARGE =          34.9593

            TOTAL IN =    26259944.0000              TOTAL IN =     5107199.0000

          OUT:                                     OUT:
          ----                                     ----
             STORAGE =    26262056.0000               STORAGE =     5107692.0000
       CONSTANT HEAD =           0.0000         CONSTANT HEAD =           0.0000
       RIVER LEAKAGE =         392.1284         RIVER LEAKAGE =          66.5245
            RECHARGE =           0.0000              RECHARGE =           0.0000

           TOTAL OUT =    26262448.0000             TOTAL OUT =     5107758.5000

            IN - OUT =       -2504.0000              IN - OUT =        -559.5000

 PERCENT DISCREPANCY =          -0.01     PERCENT DISCREPANCY =          -0.01






         TIME SUMMARY AT END OF TIME STEP    5 IN STRESS PERIOD    1
                    SECONDS     MINUTES      HOURS       DAYS        YEARS
                    -----------------------------------------------------------
   TIME STEP LENGTH  86400.      1440.0      24.000      1.0000     2.73785E-03
 STRESS PERIOD TIME 4.32000E+05  7200.0      120.00      5.0000     1.36893E-02
         TOTAL TIME 4.32000E+05  7200.0      120.00      5.0000     1.36893E-02
1
 
 SOLVING FOR HEAD 
                                                   Max.-Head-Change                        Max.-Flux-Residual
  Residual-Control   Outer-Iter.   Inner-Iter.     Column Row Layer    Max.-Head-Change    Column Row Layer    Max.-Flux-Residual            L2-New               L2-Old           Solver-Max-Delh
          0                 1           2            41   65     1       0.3179946902E+01      34  103    1       0.1027337750E+07      0.1383949405E+07      0.3381833477E+03      0.3179946902E+01
          0                 2           2            62   28     1      -0.8109911312E+00      34  103    1      -0.1027544819E+06      0.1631252931E+06      0.1383949405E+07     -0.8109911312E+00
          0                 3           2            60    6     1       0.2887715987E+00      34  103    1      -0.5137875982E+04      0.8386540331E+04      0.1631252931E+06      0.2887715987E+00

    ------------------------------------------------
       NWT REQUIRED            3 OUTER ITERATIONS 
       AND A TOTAL OF          6 INNER ITERATIONS.
    ------------------------------------------------

 OUTPUT CONTROL FOR STRESS PERIOD    1   TIME STEP    6
    SAVE HEAD FOR ALL LAYERS
    SAVE DRAWDOWN FOR ALL LAYERS
    SAVE BUDGET
    PRINT BUDGET
 UBDSV1 SAVING "         STORAGE" ON UNIT   9 AT TIME STEP  6, STRESS PERIOD   1
 UBDSV2 SAVING "   CONSTANT HEAD" ON UNIT   9 AT TIME STEP  6, STRESS PERIOD   1
 UBDSV1 SAVING "FLOW RIGHT FACE " ON UNIT   9 AT TIME STEP  6, STRESS PERIOD   1
 UBDSV1 SAVING "FLOW FRONT FACE " ON UNIT   9 AT TIME STEP  6, STRESS PERIOD   1
 UBDSV4 SAVING "   RIVER LEAKAGE" ON UNIT   9 AT TIME STEP  6, STRESS PERIOD   1
 UBDSV3 SAVING "        RECHARGE" ON UNIT   9 AT TIME STEP  6, STRESS PERIOD   1

 HEAD WILL BE SAVED ON UNIT   37 AT END OF TIME STEP    6, STRESS PERIOD    1

 DRAWDOWN WILL BE SAVED ON UNIT   38 AT END OF TIME STEP    6, STRESS PERIOD    1
1
  VOLUMETRIC BUDGET FOR ENTIRE MODEL AT END OF TIME STEP    6, STRESS PERIOD   1
  ------------------------------------------------------------------------------

     CUMULATIVE VOLUMES      L**3       RATES FOR THIS TIME STEP      L**3/T
     ------------------                 ------------------------

           IN:                                      IN:
           ---                                      ---
             STORAGE =     5710869.0000               STORAGE =      948079.2500
       CONSTANT HEAD =           0.0000         CONSTANT HEAD =           0.0000
       RIVER LEAKAGE =    25481216.0000         RIVER LEAKAGE =     3985002.0000
            RECHARGE =         962.1124              RECHARGE =          22.1148

            TOTAL IN =    31193048.0000              TOTAL IN =     4933103.0000

          OUT:                                     OUT:
          ----                                     ----
             STORAGE =    31196256.0000               STORAGE =     4934200.0000
       CONSTANT HEAD =           0.0000         CONSTANT HEAD =           0.0000
       RIVER LEAKAGE =         519.2698         RIVER LEAKAGE =         127.1414
            RECHARGE =           0.0000              RECHARGE =           0.0000

           TOTAL OUT =    31196776.0000             TOTAL OUT =     4934327.0000

            IN - OUT =       -3728.0000              IN - OUT =       -1224.0000

 PERCENT DISCREPANCY =          -0.01     PERCENT DISCREPANCY =          -0.02






         TIME SUMMARY AT END OF TIME STEP    6 IN STRESS PERIOD    1
                    SECONDS     MINUTES      HOURS       DAYS        YEARS
                    -----------------------------------------------------------
   TIME STEP LENGTH  86400.      1440.0      24.000      1.0000     2.73785E-03
 STRESS PERIOD TIME 5.18400E+05  8640.0      144.00      6.0000     1.64271E-02
         TOTAL TIME 5.18400E+05  8640.0      144.00      6.0000     1.64271E-02
1
 
 SOLVING FOR HEAD 
                                                   Max.-Head-Change                        Max.-Flux-Residual
  Residual-Control   Outer-Iter.   Inner-Iter.     Column Row Layer    Max.-Head-Change    Column Row Layer    Max.-Flux-Residual            L2-New               L2-Old           Solver-Max-Delh
          0                 1           2            41   65     1       0.2564570381E+01      34  103    1       0.1027217473E+07      0.1371921248E+07      0.4198669514E+03      0.2564570381E+01
          0                 2           2            60    6     1       0.2310830492E+00      34  103    1      -0.1027424470E+06      0.1372125600E+06      0.1371921248E+07      0.2310830492E+00
          0                 3           2            60    6     1       0.2310777095E+00      34  103    1      -0.5137274181E+04      0.6860820320E+04      0.1372125600E+06      0.2310777095E+00
          0                 4           2            60    6     1       0.2310723702E+00      59   40    1      -0.4223605184E+03      0.5446190331E+03      0.6860820320E+04      0.2310723702E+00

    ------------------------------------------------
       NWT REQUIRED            4 OUTER ITERATIONS 
       AND A TOTAL OF          8 INNER ITERATIONS.
    ------------------------------------------------

 OUTPUT CONTROL FOR STRESS PERIOD    1   TIME STEP    7
    SAVE HEAD FOR ALL LAYERS
    SAVE DRAWDOWN FOR ALL LAYERS
    SAVE BUDGET
    PRINT BUDGET
 UBDSV1 SAVING "         STORAGE" ON UNIT   9 AT TIME STEP  7, STRESS PERIOD   1
 UBDSV2 SAVING "   CONSTANT HEAD" ON UNIT   9 AT TIME STEP  7, STRESS PERIOD   1
 UBDSV1 SAVING "FLOW RIGHT FACE " ON UNIT   9 AT TIME STEP  7, STRESS PERIOD   1
 UBDSV1 SAVING "FLOW FRONT FACE " ON UNIT   9 AT TIME STEP  7, STRESS PERIOD   1
 UBDSV4 SAVING "   RIVER LEAKAGE" ON UNIT   9 AT TIME STEP  7, STRESS PERIOD   1
 UBDSV3 SAVING "        RECHARGE" ON UNIT   9 AT TIME STEP  7, STRESS PERIOD   1

 HEAD WILL BE SAVED ON UNIT   37 AT END OF TIME STEP    7, STRESS PERIOD    1

 DRAWDOWN WILL BE SAVED ON UNIT   38 AT END OF TIME STEP    7, STRESS PERIOD    1
1
  VOLUMETRIC BUDGET FOR ENTIRE MODEL AT END OF TIME STEP    7, STRESS PERIOD   1
  ------------------------------------------------------------------------------

     CUMULATIVE VOLUMES      L**3       RATES FOR THIS TIME STEP      L**3/T
     ------------------                 ------------------------

           IN:                                      IN:
           ---                                      ---
             STORAGE =     6658045.0000               STORAGE =      947175.7500
       CONSTANT HEAD =           0.0000         CONSTANT HEAD =           0.0000
       RIVER LEAKAGE =    29142578.0000         RIVER LEAKAGE =     3661361.5000
            RECHARGE =         976.5985              RECHARGE =          14.4861

            TOTAL IN =    35801600.0000              TOTAL IN =     4608552.0000

          OUT:                                     OUT:
          ----                                     ----
             STORAGE =    35804644.0000               STORAGE =     4608386.5000
       CONSTANT HEAD =           0.0000         CONSTANT HEAD =           0.0000
       RIVER LEAKAGE =         646.8831         RIVER LEAKAGE =         127.6133
            RECHARGE =           0.0000              RECHARGE =           0.0000

           TOTAL OUT =    35805292.0000             TOTAL OUT =     4608514.0000

            IN - OUT =       -3692.0000              IN - OUT =          38.0000

 PERCENT DISCREPANCY =          -0.01     PERCENT DISCREPANCY =           0.00






         TIME SUMMARY AT END OF TIME STEP    7 IN STRESS PERIOD    1
                    SECONDS     MINUTES      HOURS       DAYS        YEARS
                    -----------------------------------------------------------
   TIME STEP LENGTH  86400.      1440.0      24.000      1.0000     2.73785E-03
 STRESS PERIOD TIME 6.04800E+05  10080.      168.00      7.0000     1.91650E-02
         TOTAL TIME 6.04800E+05  10080.      168.00      7.0000     1.91650E-02
1
 
 SOLVING FOR HEAD 
                                                   Max.-Head-Change                        Max.-Flux-Residual
  Residual-Control   Outer-Iter.   Inner-Iter.     Column Row Layer    Max.-Head-Change    Column Row Layer    Max.-Flux-Residual            L2-New               L2-Old           Solver-Max-Delh
          0                 1           2            34  103     1       0.1129545779E+01      34  103    1       0.1027084017E+07      0.1344320073E+07      0.3643755118E+02      0.1129545779E+01
          0                 2           2            58   14     1       0.2611638672E+00      34  103    1      -0.1027290935E+06      0.1344528400E+06      0.1344320073E+07      0.2611638672E+00
          0                 3           2            58   14     1       0.2607197272E+00      34  103    1      -0.5136606447E+04      0.6722844869E+04      0.1344528400E+06      0.2607197272E+00

    ------------------------------------------------
       NWT REQUIRED            3 OUTER ITERATIONS 
       AND A TOTAL OF          6 INNER ITERATIONS.
    ------------------------------------------------

 OUTPUT CONTROL FOR STRESS PERIOD    1   TIME STEP    8
    SAVE HEAD FOR ALL LAYERS
    SAVE DRAWDOWN FOR ALL LAYERS
    SAVE BUDGET
    PRINT BUDGET
 UBDSV1 SAVING "         STORAGE" ON UNIT   9 AT TIME STEP  8, STRESS PERIOD   1
 UBDSV2 SAVING "   CONSTANT HEAD" ON UNIT   9 AT TIME STEP  8, STRESS PERIOD   1
 UBDSV1 SAVING "FLOW RIGHT FACE " ON UNIT   9 AT TIME STEP  8, STRESS PERIOD   1
 UBDSV1 SAVING "FLOW FRONT FACE " ON UNIT   9 AT TIME STEP  8, STRESS PERIOD   1
 UBDSV4 SAVING "   RIVER LEAKAGE" ON UNIT   9 AT TIME STEP  8, STRESS PERIOD   1
 UBDSV3 SAVING "        RECHARGE" ON UNIT   9 AT TIME STEP  8, STRESS PERIOD   1

 HEAD WILL BE SAVED ON UNIT   37 AT END OF TIME STEP    8, STRESS PERIOD    1

 DRAWDOWN WILL BE SAVED ON UNIT   38 AT END OF TIME STEP    8, STRESS PERIOD    1
1
  VOLUMETRIC BUDGET FOR ENTIRE MODEL AT END OF TIME STEP    8, STRESS PERIOD   1
  ------------------------------------------------------------------------------

     CUMULATIVE VOLUMES      L**3       RATES FOR THIS TIME STEP      L**3/T
     ------------------                 ------------------------

           IN:                                      IN:
           ---                                      ---
             STORAGE =     7604767.0000               STORAGE =      946722.1875
       CONSTANT HEAD =           0.0000         CONSTANT HEAD =           0.0000
       RIVER LEAKAGE =    32803358.0000         RIVER LEAKAGE =     3660780.7500
            RECHARGE =         986.3403              RECHARGE =           9.7418

            TOTAL IN =    40409112.0000              TOTAL IN =     4607512.5000

          OUT:                                     OUT:
          ----                                     ----
             STORAGE =    40413160.0000               STORAGE =     4608517.0000
       CONSTANT HEAD =           0.0000         CONSTANT HEAD =           0.0000
       RIVER LEAKAGE =         774.4956         RIVER LEAKAGE =         127.6125
            RECHARGE =           0.0000              RECHARGE =           0.0000

           TOTAL OUT =    40413936.0000             TOTAL OUT =     4608644.5000

            IN - OUT =       -4824.0000              IN - OUT =       -1132.0000

 PERCENT DISCREPANCY =          -0.01     PERCENT DISCREPANCY =          -0.02






         TIME SUMMARY AT END OF TIME STEP    8 IN STRESS PERIOD    1
                    SECONDS     MINUTES      HOURS       DAYS        YEARS
                    -----------------------------------------------------------
   TIME STEP LENGTH  86400.      1440.0      24.000      1.0000     2.73785E-03
 STRESS PERIOD TIME 6.91200E+05  11520.      192.00      8.0000     2.19028E-02
         TOTAL TIME 6.91200E+05  11520.      192.00      8.0000     2.19028E-02
1
 
 SOLVING FOR HEAD 
                                                   Max.-Head-Change                        Max.-Flux-Residual
  Residual-Control   Outer-Iter.   Inner-Iter.     Column Row Layer    Max.-Head-Change    Column Row Layer    Max.-Flux-Residual            L2-New               L2-Old           Solver-Max-Delh
          0                 1           2            34  103     1       0.1129358339E+01      34  103    1       0.1026937333E+07      0.1343853529E+07      0.4728007097E+03      0.1129358339E+01
          0                 2           2            58   14     1       0.2925763280E+00      34  103    1      -0.1027144166E+06      0.1486019449E+06      0.1343853529E+07      0.2925763280E+00
          0                 3           2            58   14     1       0.2920159266E+00      34  103    1      -0.5135872542E+04      0.7430303423E+04      0.1486019449E+06      0.2920159266E+00
          0                 4           2            58   14     1       0.2914511568E+00      43   36    1      -0.3425032497E+04      0.3445214573E+04      0.7430303423E+04      0.2914511568E+00

    ------------------------------------------------
       NWT REQUIRED            4 OUTER ITERATIONS 
       AND A TOTAL OF          8 INNER ITERATIONS.
    ------------------------------------------------

 OUTPUT CONTROL FOR STRESS PERIOD    1   TIME STEP    9
    SAVE HEAD FOR ALL LAYERS
    SAVE DRAWDOWN FOR ALL LAYERS
    SAVE BUDGET
    PRINT BUDGET
 UBDSV1 SAVING "         STORAGE" ON UNIT   9 AT TIME STEP  9, STRESS PERIOD   1
 UBDSV2 SAVING "   CONSTANT HEAD" ON UNIT   9 AT TIME STEP  9, STRESS PERIOD   1
 UBDSV1 SAVING "FLOW RIGHT FACE " ON UNIT   9 AT TIME STEP  9, STRESS PERIOD   1
 UBDSV1 SAVING "FLOW FRONT FACE " ON UNIT   9 AT TIME STEP  9, STRESS PERIOD   1
 UBDSV4 SAVING "   RIVER LEAKAGE" ON UNIT   9 AT TIME STEP  9, STRESS PERIOD   1
 UBDSV3 SAVING "        RECHARGE" ON UNIT   9 AT TIME STEP  9, STRESS PERIOD   1

 HEAD WILL BE SAVED ON UNIT   37 AT END OF TIME STEP    9, STRESS PERIOD    1

 DRAWDOWN WILL BE SAVED ON UNIT   38 AT END OF TIME STEP    9, STRESS PERIOD    1
1
  VOLUMETRIC BUDGET FOR ENTIRE MODEL AT END OF TIME STEP    9, STRESS PERIOD   1
  ------------------------------------------------------------------------------

     CUMULATIVE VOLUMES      L**3       RATES FOR THIS TIME STEP      L**3/T
     ------------------                 ------------------------

           IN:                                      IN:
           ---                                      ---
             STORAGE =     8550586.0000               STORAGE =      945819.1250
       CONSTANT HEAD =           0.0000         CONSTANT HEAD =           0.0000
       RIVER LEAKAGE =    36464136.0000         RIVER LEAKAGE =     3660779.2500
            RECHARGE =         993.0295              RECHARGE =           6.6891

            TOTAL IN =    45015712.0000              TOTAL IN =     4606605.0000

          OUT:                                     OUT:
          ----                                     ----
             STORAGE =    45019752.0000               STORAGE =     4606593.0000
       CONSTANT HEAD =           0.0000         CONSTANT HEAD =           0.0000
       RIVER LEAKAGE =         902.1066         RIVER LEAKAGE =         127.6110
            RECHARGE =           0.0000              RECHARGE =           0.0000

           TOTAL OUT =    45020656.0000             TOTAL OUT =     4606720.5000

            IN - OUT =       -4944.0000              IN - OUT =        -115.5000

 PERCENT DISCREPANCY =          -0.01     PERCENT DISCREPANCY =          -0.00






         TIME SUMMARY AT END OF TIME STEP    9 IN STRESS PERIOD    1
                    SECONDS     MINUTES      HOURS       DAYS        YEARS
                    -----------------------------------------------------------
   TIME STEP LENGTH  86400.      1440.0      24.000      1.0000     2.73785E-03
 STRESS PERIOD TIME 7.77600E+05  12960.      216.00      9.0000     2.46407E-02
         TOTAL TIME 7.77600E+05  12960.      216.00      9.0000     2.46407E-02
1
 
 SOLVING FOR HEAD 
                                                   Max.-Head-Change                        Max.-Flux-Residual
  Residual-Control   Outer-Iter.   Inner-Iter.     Column Row Layer    Max.-Head-Change    Column Row Layer    Max.-Flux-Residual            L2-New               L2-Old           Solver-Max-Delh
          0                 1           2            34  103     1       0.1129156476E+01      34  103    1       0.1026777509E+07      0.1343375827E+07      0.1743514262E+03      0.1129156476E+01
          0                 2           2            34  103     1       0.5917667128E+00      34  103    1       0.1759932616E+06      0.1961604592E+06      0.1343375827E+07      0.5917667128E+00
          0                 3           2            58   14     1       0.3222021055E+00      34  103    1      -0.1761789812E+05      0.1814214377E+05      0.1961604592E+06      0.3222021055E+00
          0                 4           2            58   14     1       0.3215098944E+00      39   51    1      -0.1060052946E+05      0.1063930721E+05      0.1814214377E+05      0.3215098944E+00
          0                 5           2            58   14     1       0.3208189345E+00      39   51    1      -0.5301276992E+03      0.5328091835E+03      0.1063930721E+05      0.3208189345E+00

    ------------------------------------------------
       NWT REQUIRED            5 OUTER ITERATIONS 
       AND A TOTAL OF         10 INNER ITERATIONS.
    ------------------------------------------------

 OUTPUT CONTROL FOR STRESS PERIOD    1   TIME STEP   10
    SAVE HEAD FOR ALL LAYERS
    SAVE DRAWDOWN FOR ALL LAYERS
    SAVE BUDGET
    PRINT BUDGET
 UBDSV1 SAVING "         STORAGE" ON UNIT   9 AT TIME STEP 10, STRESS PERIOD   1
 UBDSV2 SAVING "   CONSTANT HEAD" ON UNIT   9 AT TIME STEP 10, STRESS PERIOD   1
 UBDSV1 SAVING "FLOW RIGHT FACE " ON UNIT   9 AT TIME STEP 10, STRESS PERIOD   1
 UBDSV1 SAVING "FLOW FRONT FACE " ON UNIT   9 AT TIME STEP 10, STRESS PERIOD   1
 UBDSV4 SAVING "   RIVER LEAKAGE" ON UNIT   9 AT TIME STEP 10, STRESS PERIOD   1
 UBDSV3 SAVING "        RECHARGE" ON UNIT   9 AT TIME STEP 10, STRESS PERIOD   1

 HEAD WILL BE SAVED ON UNIT   37 AT END OF TIME STEP   10, STRESS PERIOD    1

 DRAWDOWN WILL BE SAVED ON UNIT   38 AT END OF TIME STEP   10, STRESS PERIOD    1
1
  VOLUMETRIC BUDGET FOR ENTIRE MODEL AT END OF TIME STEP   10, STRESS PERIOD   1
  ------------------------------------------------------------------------------

     CUMULATIVE VOLUMES      L**3       RATES FOR THIS TIME STEP      L**3/T
     ------------------                 ------------------------

           IN:                                      IN:
           ---                                      ---
             STORAGE =     9495706.0000               STORAGE =      945119.5625
       CONSTANT HEAD =           0.0000         CONSTANT HEAD =           0.0000
       RIVER LEAKAGE =    39862388.0000         RIVER LEAKAGE =     3398252.7500
            RECHARGE =         997.7017              RECHARGE =           4.6722

            TOTAL IN =    49359088.0000              TOTAL IN =     4343377.0000

          OUT:                                     OUT:
          ----                                     ----
             STORAGE =    49362916.0000               STORAGE =     4343162.5000
       CONSTANT HEAD =           0.0000         CONSTANT HEAD =           0.0000
       RIVER LEAKAGE =        1029.7163         RIVER LEAKAGE =         127.6096
            RECHARGE =           0.0000              RECHARGE =           0.0000

           TOTAL OUT =    49363944.0000             TOTAL OUT =     4343290.0000

            IN - OUT =       -4856.0000              IN - OUT =          87.0000

 PERCENT DISCREPANCY =          -0.01     PERCENT DISCREPANCY =           0.00






         TIME SUMMARY AT END OF TIME STEP   10 IN STRESS PERIOD    1
                    SECONDS     MINUTES      HOURS       DAYS        YEARS
                    -----------------------------------------------------------
   TIME STEP LENGTH  86400.      1440.0      24.000      1.0000     2.73785E-03
 STRESS PERIOD TIME 8.64000E+05  14400.      240.00      10.000     2.73785E-02
         TOTAL TIME 8.64000E+05  14400.      240.00      10.000     2.73785E-02
1
 
 SOLVING FOR HEAD 
                                                   Max.-Head-Change                        Max.-Flux-Residual
  Residual-Control   Outer-Iter.   Inner-Iter.     Column Row Layer    Max.-Head-Change    Column Row Layer    Max.-Flux-Residual            L2-New               L2-Old           Solver-Max-Delh
          0                 1           2            34  103     1       0.2569622025E+01      34  103    1       0.7640554560E+06      0.1154659285E+07      0.3867015463E+02      0.2569622025E+01
          0                 2           2            58   14     1       0.3517384203E+00      30  100    1      -0.8376632772E+05      0.1426567698E+06      0.1154659285E+07      0.3517384203E+00
          0                 3           2            58   14     1       0.3509139008E+00      61   56    1      -0.4666107029E+04      0.8523609468E+04      0.1426567698E+06      0.3509139008E+00

    ------------------------------------------------
       NWT REQUIRED            3 OUTER ITERATIONS 
       AND A TOTAL OF          6 INNER ITERATIONS.
    ------------------------------------------------

 OUTPUT CONTROL FOR STRESS PERIOD    1   TIME STEP   11
    SAVE HEAD FOR ALL LAYERS
    SAVE DRAWDOWN FOR ALL LAYERS
    SAVE BUDGET
    PRINT BUDGET
 UBDSV1 SAVING "         STORAGE" ON UNIT   9 AT TIME STEP 11, STRESS PERIOD   1
 UBDSV2 SAVING "   CONSTANT HEAD" ON UNIT   9 AT TIME STEP 11, STRESS PERIOD   1
 UBDSV1 SAVING "FLOW RIGHT FACE " ON UNIT   9 AT TIME STEP 11, STRESS PERIOD   1
 UBDSV1 SAVING "FLOW FRONT FACE " ON UNIT   9 AT TIME STEP 11, STRESS PERIOD   1
 UBDSV4 SAVING "   RIVER LEAKAGE" ON UNIT   9 AT TIME STEP 11, STRESS PERIOD   1
 UBDSV3 SAVING "        RECHARGE" ON UNIT   9 AT TIME STEP 11, STRESS PERIOD   1

 HEAD WILL BE SAVED ON UNIT   37 AT END OF TIME STEP   11, STRESS PERIOD    1

 DRAWDOWN WILL BE SAVED ON UNIT   38 AT END OF TIME STEP   11, STRESS PERIOD    1
1
  VOLUMETRIC BUDGET FOR ENTIRE MODEL AT END OF TIME STEP   11, STRESS PERIOD   1
  ------------------------------------------------------------------------------

     CUMULATIVE VOLUMES      L**3       RATES FOR THIS TIME STEP      L**3/T
     ------------------                 ------------------------

           IN:                                      IN:
           ---                                      ---
             STORAGE =    10440362.0000               STORAGE =      944656.1875
       CONSTANT HEAD =           0.0000         CONSTANT HEAD =           0.0000
       RIVER LEAKAGE =    42497780.0000         RIVER LEAKAGE =     2635391.5000
            RECHARGE =        1001.0125              RECHARGE =           3.3108

            TOTAL IN =    52939144.0000              TOTAL IN =     3580051.0000

          OUT:                                     OUT:
          ----                                     ----
             STORAGE =    52943048.0000               STORAGE =     3580134.0000
       CONSTANT HEAD =           0.0000         CONSTANT HEAD =           0.0000
       RIVER LEAKAGE =        2122.9136         RIVER LEAKAGE =        1093.1971
            RECHARGE =           0.0000              RECHARGE =           0.0000

           TOTAL OUT =    52945172.0000             TOTAL OUT =     3581227.2500

            IN - OUT =       -6028.0000              IN - OUT =       -1176.2500

 PERCENT DISCREPANCY =          -0.01     PERCENT DISCREPANCY =          -0.03






         TIME SUMMARY AT END OF TIME STEP   11 IN STRESS PERIOD    1
                    SECONDS     MINUTES      HOURS       DAYS        YEARS
                    -----------------------------------------------------------
   TIME STEP LENGTH  86400.      1440.0      24.000      1.0000     2.73785E-03
 STRESS PERIOD TIME 9.50400E+05  15840.      264.00      11.000     3.01164E-02
         TOTAL TIME 9.50400E+05  15840.      264.00      11.000     3.01164E-02
1
 
 SOLVING FOR HEAD 
                                                   Max.-Head-Change                        Max.-Flux-Residual
  Residual-Control   Outer-Iter.   Inner-Iter.     Column Row Layer    Max.-Head-Change    Column Row Layer    Max.-Flux-Residual            L2-New               L2-Old           Solver-Max-Delh
          0                 1           2            62   30     1       0.8825811438E+00      34  102    1       0.5423663942E+06      0.8651934797E+06      0.4271101846E+03      0.8825811438E+00
          0                 2           2            58   14     1       0.3813795528E+00      34  102    1      -0.5424390601E+05      0.8652963934E+05      0.8651934797E+06      0.3813795528E+00
          0                 3           2            58   14     1       0.3804038385E+00      38   33    1      -0.4922078487E+04      0.6553388891E+04      0.8652963934E+05      0.3804038385E+00

    ------------------------------------------------
       NWT REQUIRED            3 OUTER ITERATIONS 
       AND A TOTAL OF          6 INNER ITERATIONS.
    ------------------------------------------------

 OUTPUT CONTROL FOR STRESS PERIOD    1   TIME STEP   12
    SAVE HEAD FOR ALL LAYERS
    SAVE DRAWDOWN FOR ALL LAYERS
    SAVE BUDGET
    PRINT BUDGET
 UBDSV1 SAVING "         STORAGE" ON UNIT   9 AT TIME STEP 12, STRESS PERIOD   1
 UBDSV2 SAVING "   CONSTANT HEAD" ON UNIT   9 AT TIME STEP 12, STRESS PERIOD   1
 UBDSV1 SAVING "FLOW RIGHT FACE " ON UNIT   9 AT TIME STEP 12, STRESS PERIOD   1
 UBDSV1 SAVING "FLOW FRONT FACE " ON UNIT   9 AT TIME STEP 12, STRESS PERIOD   1
 UBDSV4 SAVING "   RIVER LEAKAGE" ON UNIT   9 AT TIME STEP 12, STRESS PERIOD   1
 UBDSV3 SAVING "        RECHARGE" ON UNIT   9 AT TIME STEP 12, STRESS PERIOD   1

 HEAD WILL BE SAVED ON UNIT   37 AT END OF TIME STEP   12, STRESS PERIOD    1

 DRAWDOWN WILL BE SAVED ON UNIT   38 AT END OF TIME STEP   12, STRESS PERIOD    1
1
  VOLUMETRIC BUDGET FOR ENTIRE MODEL AT END OF TIME STEP   12, STRESS PERIOD   1
  ------------------------------------------------------------------------------

     CUMULATIVE VOLUMES      L**3       RATES FOR THIS TIME STEP      L**3/T
     ------------------                 ------------------------

           IN:                                      IN:
           ---                                      ---
             STORAGE =    11384359.0000               STORAGE =      943996.5625
       CONSTANT HEAD =           0.0000         CONSTANT HEAD =           0.0000
       RIVER LEAKAGE =    45133172.0000         RIVER LEAKAGE =     2635391.2500
            RECHARGE =        1003.3877              RECHARGE =           2.3753

            TOTAL IN =    56518536.0000              TOTAL IN =     3579390.2500

          OUT:                                     OUT:
          ----                                     ----
             STORAGE =    56521896.0000               STORAGE =     3578846.5000
       CONSTANT HEAD =           0.0000         CONSTANT HEAD =           0.0000
       RIVER LEAKAGE =        3447.6147         RIVER LEAKAGE =        1324.7012
            RECHARGE =           0.0000              RECHARGE =           0.0000

           TOTAL OUT =    56525344.0000             TOTAL OUT =     3580171.2500

            IN - OUT =       -6808.0000              IN - OUT =        -781.0000

 PERCENT DISCREPANCY =          -0.01     PERCENT DISCREPANCY =          -0.02






         TIME SUMMARY AT END OF TIME STEP   12 IN STRESS PERIOD    1
                    SECONDS     MINUTES      HOURS       DAYS        YEARS
                    -----------------------------------------------------------
   TIME STEP LENGTH  86400.      1440.0      24.000      1.0000     2.73785E-03
 STRESS PERIOD TIME 1.03680E+06  17280.      288.00      12.000     3.28542E-02
         TOTAL TIME 1.03680E+06  17280.      288.00      12.000     3.28542E-02
1
 
 SOLVING FOR HEAD 
                                                   Max.-Head-Change                        Max.-Flux-Residual
  Residual-Control   Outer-Iter.   Inner-Iter.     Column Row Layer    Max.-Head-Change    Column Row Layer    Max.-Flux-Residual            L2-New               L2-Old           Solver-Max-Delh
          0                 1           2            62   30     1       0.8825073833E+00      34  102    1       0.5419060695E+06      0.8646063657E+06      0.3291270864E+03      0.8825073833E+00
          0                 2           2            58   14     1       0.4103875110E+00      34  102    1      -0.5419786050E+05      0.8647074526E+05      0.8646063657E+06      0.4103875110E+00
          0                 3           2            58   14     1       0.4092497252E+00      34  102    1      -0.2709945762E+04      0.4323738146E+04      0.8647074526E+05      0.4092497252E+00

    ------------------------------------------------
       NWT REQUIRED            3 OUTER ITERATIONS 
       AND A TOTAL OF          6 INNER ITERATIONS.
    ------------------------------------------------

 OUTPUT CONTROL FOR STRESS PERIOD    1   TIME STEP   13
    SAVE HEAD FOR ALL LAYERS
    SAVE DRAWDOWN FOR ALL LAYERS
    SAVE BUDGET
    PRINT BUDGET
 UBDSV1 SAVING "         STORAGE" ON UNIT   9 AT TIME STEP 13, STRESS PERIOD   1
 UBDSV2 SAVING "   CONSTANT HEAD" ON UNIT   9 AT TIME STEP 13, STRESS PERIOD   1
 UBDSV1 SAVING "FLOW RIGHT FACE " ON UNIT   9 AT TIME STEP 13, STRESS PERIOD   1
 UBDSV1 SAVING "FLOW FRONT FACE " ON UNIT   9 AT TIME STEP 13, STRESS PERIOD   1
 UBDSV4 SAVING "   RIVER LEAKAGE" ON UNIT   9 AT TIME STEP 13, STRESS PERIOD   1
 UBDSV3 SAVING "        RECHARGE" ON UNIT   9 AT TIME STEP 13, STRESS PERIOD   1

 HEAD WILL BE SAVED ON UNIT   37 AT END OF TIME STEP   13, STRESS PERIOD    1

 DRAWDOWN WILL BE SAVED ON UNIT   38 AT END OF TIME STEP   13, STRESS PERIOD    1
1
  VOLUMETRIC BUDGET FOR ENTIRE MODEL AT END OF TIME STEP   13, STRESS PERIOD   1
  ------------------------------------------------------------------------------

     CUMULATIVE VOLUMES      L**3       RATES FOR THIS TIME STEP      L**3/T
     ------------------                 ------------------------

           IN:                                      IN:
           ---                                      ---
             STORAGE =    12327696.0000               STORAGE =      943337.5000
       CONSTANT HEAD =           0.0000         CONSTANT HEAD =           0.0000
       RIVER LEAKAGE =    47768564.0000         RIVER LEAKAGE =     2635390.7500
            RECHARGE =        1005.1102              RECHARGE =           1.7225

            TOTAL IN =    60097264.0000              TOTAL IN =     3578730.0000

          OUT:                                     OUT:
          ----                                     ----
             STORAGE =    60099636.0000               STORAGE =     3577740.7500
       CONSTANT HEAD =           0.0000         CONSTANT HEAD =           0.0000
       RIVER LEAKAGE =        4963.7803         RIVER LEAKAGE =        1516.1654
            RECHARGE =           0.0000              RECHARGE =           0.0000

           TOTAL OUT =    60104600.0000             TOTAL OUT =     3579257.0000

            IN - OUT =       -7336.0000              IN - OUT =        -527.0000

 PERCENT DISCREPANCY =          -0.01     PERCENT DISCREPANCY =          -0.01






         TIME SUMMARY AT END OF TIME STEP   13 IN STRESS PERIOD    1
                    SECONDS     MINUTES      HOURS       DAYS        YEARS
                    -----------------------------------------------------------
   TIME STEP LENGTH  86400.      1440.0      24.000      1.0000     2.73785E-03
 STRESS PERIOD TIME 1.12320E+06  18720.      312.00      13.000     3.55921E-02
         TOTAL TIME 1.12320E+06  18720.      312.00      13.000     3.55921E-02
1
 
 SOLVING FOR HEAD 
                                                   Max.-Head-Change                        Max.-Flux-Residual
  Residual-Control   Outer-Iter.   Inner-Iter.     Column Row Layer    Max.-Head-Change    Column Row Layer    Max.-Flux-Residual            L2-New               L2-Old           Solver-Max-Delh
          0                 1           2            62   30     1       0.8824335023E+00      34  102    1       0.5414400425E+06      0.8640103780E+06      0.2186729615E+03      0.8824335023E+00
          0                 2           2            58   14     1       0.4387124098E+00      34  102    1      -0.5415124418E+05      0.8641137356E+05      0.8640103780E+06      0.4387124098E+00
          0                 3           2            58   14     1       0.4374022471E+00      34  102    1      -0.2707614845E+04      0.4321249897E+04      0.8641137356E+05      0.4374022471E+00

    ------------------------------------------------
       NWT REQUIRED            3 OUTER ITERATIONS 
       AND A TOTAL OF          6 INNER ITERATIONS.
    ------------------------------------------------

 OUTPUT CONTROL FOR STRESS PERIOD    1   TIME STEP   14
    SAVE HEAD FOR ALL LAYERS
    SAVE DRAWDOWN FOR ALL LAYERS
    SAVE BUDGET
    PRINT BUDGET
 UBDSV1 SAVING "         STORAGE" ON UNIT   9 AT TIME STEP 14, STRESS PERIOD   1
 UBDSV2 SAVING "   CONSTANT HEAD" ON UNIT   9 AT TIME STEP 14, STRESS PERIOD   1
 UBDSV1 SAVING "FLOW RIGHT FACE " ON UNIT   9 AT TIME STEP 14, STRESS PERIOD   1
 UBDSV1 SAVING "FLOW FRONT FACE " ON UNIT   9 AT TIME STEP 14, STRESS PERIOD   1
 UBDSV4 SAVING "   RIVER LEAKAGE" ON UNIT   9 AT TIME STEP 14, STRESS PERIOD   1
 UBDSV3 SAVING "        RECHARGE" ON UNIT   9 AT TIME STEP 14, STRESS PERIOD   1

 HEAD WILL BE SAVED ON UNIT   37 AT END OF TIME STEP   14, STRESS PERIOD    1

 DRAWDOWN WILL BE SAVED ON UNIT   38 AT END OF TIME STEP   14, STRESS PERIOD    1
1
  VOLUMETRIC BUDGET FOR ENTIRE MODEL AT END OF TIME STEP   14, STRESS PERIOD   1
  ------------------------------------------------------------------------------

     CUMULATIVE VOLUMES      L**3       RATES FOR THIS TIME STEP      L**3/T
     ------------------                 ------------------------

           IN:                                      IN:
           ---                                      ---
             STORAGE =    13270375.0000               STORAGE =      942679.1250
       CONSTANT HEAD =           0.0000         CONSTANT HEAD =           0.0000
       RIVER LEAKAGE =    50403956.0000         RIVER LEAKAGE =     2635390.5000
            RECHARGE =        1006.3713              RECHARGE =           1.2611

            TOTAL IN =    63675340.0000              TOTAL IN =     3578071.0000

          OUT:                                     OUT:
          ----                                     ----
             STORAGE =    63676516.0000               STORAGE =     3576879.0000
       CONSTANT HEAD =           0.0000         CONSTANT HEAD =           0.0000
       RIVER LEAKAGE =        6674.1514         RIVER LEAKAGE =        1710.3713
            RECHARGE =           0.0000              RECHARGE =           0.0000

           TOTAL OUT =    63683192.0000             TOTAL OUT =     3578589.2500

            IN - OUT =       -7852.0000              IN - OUT =        -518.2500

 PERCENT DISCREPANCY =          -0.01     PERCENT DISCREPANCY =          -0.01






         TIME SUMMARY AT END OF TIME STEP   14 IN STRESS PERIOD    1
                    SECONDS     MINUTES      HOURS       DAYS        YEARS
                    -----------------------------------------------------------
   TIME STEP LENGTH  86400.      1440.0      24.000      1.0000     2.73785E-03
 STRESS PERIOD TIME 1.20960E+06  20160.      336.00      14.000     3.83299E-02
         TOTAL TIME 1.20960E+06  20160.      336.00      14.000     3.83299E-02
1
 
 SOLVING FOR HEAD 
                                                   Max.-Head-Change                        Max.-Flux-Residual
  Residual-Control   Outer-Iter.   Inner-Iter.     Column Row Layer    Max.-Head-Change    Column Row Layer    Max.-Flux-Residual            L2-New               L2-Old           Solver-Max-Delh
          0                 1           2            62   30     1       0.8823601132E+00      34  102    1       0.5409683075E+06      0.8634084119E+06      0.2188614184E+03      0.8823601132E+00
          0                 2           2            58   14     1       0.4663065406E+00      34  102    1      -0.5410405692E+05      0.8635883839E+05      0.8634084119E+06      0.4663065406E+00
          0                 3           2            58   14     1       0.4648143020E+00      34  102    1      -0.2705255380E+04      0.4318176694E+04      0.8635883839E+05      0.4648143020E+00

    ------------------------------------------------
       NWT REQUIRED            3 OUTER ITERATIONS 
       AND A TOTAL OF          6 INNER ITERATIONS.
    ------------------------------------------------

 OUTPUT CONTROL FOR STRESS PERIOD    1   TIME STEP   15
    SAVE HEAD FOR ALL LAYERS
    SAVE DRAWDOWN FOR ALL LAYERS
    SAVE BUDGET
    PRINT BUDGET
 UBDSV1 SAVING "         STORAGE" ON UNIT   9 AT TIME STEP 15, STRESS PERIOD   1
 UBDSV2 SAVING "   CONSTANT HEAD" ON UNIT   9 AT TIME STEP 15, STRESS PERIOD   1
 UBDSV1 SAVING "FLOW RIGHT FACE " ON UNIT   9 AT TIME STEP 15, STRESS PERIOD   1
 UBDSV1 SAVING "FLOW FRONT FACE " ON UNIT   9 AT TIME STEP 15, STRESS PERIOD   1
 UBDSV4 SAVING "   RIVER LEAKAGE" ON UNIT   9 AT TIME STEP 15, STRESS PERIOD   1
 UBDSV3 SAVING "        RECHARGE" ON UNIT   9 AT TIME STEP 15, STRESS PERIOD   1

 HEAD WILL BE SAVED ON UNIT   37 AT END OF TIME STEP   15, STRESS PERIOD    1

 DRAWDOWN WILL BE SAVED ON UNIT   38 AT END OF TIME STEP   15, STRESS PERIOD    1
1
  VOLUMETRIC BUDGET FOR ENTIRE MODEL AT END OF TIME STEP   15, STRESS PERIOD   1
  ------------------------------------------------------------------------------

     CUMULATIVE VOLUMES      L**3       RATES FOR THIS TIME STEP      L**3/T
     ------------------                 ------------------------

           IN:                                      IN:
           ---                                      ---
             STORAGE =    14212396.0000               STORAGE =      942021.3750
       CONSTANT HEAD =           0.0000         CONSTANT HEAD =           0.0000
       RIVER LEAKAGE =    53039344.0000         RIVER LEAKAGE =     2635390.0000
            RECHARGE =        1007.3024              RECHARGE =           0.9311

            TOTAL IN =    67252752.0000              TOTAL IN =     3577412.5000

          OUT:                                     OUT:
          ----                                     ----
             STORAGE =    67252528.0000               STORAGE =     3576015.7500
       CONSTANT HEAD =           0.0000         CONSTANT HEAD =           0.0000
       RIVER LEAKAGE =        8581.4863         RIVER LEAKAGE =        1907.3350
            RECHARGE =           0.0000              RECHARGE =           0.0000

           TOTAL OUT =    67261112.0000             TOTAL OUT =     3577923.0000

            IN - OUT =       -8360.0000              IN - OUT =        -510.5000

 PERCENT DISCREPANCY =          -0.01     PERCENT DISCREPANCY =          -0.01






         TIME SUMMARY AT END OF TIME STEP   15 IN STRESS PERIOD    1
                    SECONDS     MINUTES      HOURS       DAYS        YEARS
                    -----------------------------------------------------------
   TIME STEP LENGTH  86400.      1440.0      24.000      1.0000     2.73785E-03
 STRESS PERIOD TIME 1.29600E+06  21600.      360.00      15.000     4.10678E-02
         TOTAL TIME 1.29600E+06  21600.      360.00      15.000     4.10678E-02
1
 
 SOLVING FOR HEAD 
                                                   Max.-Head-Change                        Max.-Flux-Residual
  Residual-Control   Outer-Iter.   Inner-Iter.     Column Row Layer    Max.-Head-Change    Column Row Layer    Max.-Flux-Residual            L2-New               L2-Old           Solver-Max-Delh
          0                 1           2            62   30     1       0.8822866210E+00      34  102    1       0.5404909002E+06      0.8627933476E+06      0.2190218681E+03      0.8822866210E+00
          0                 2           2            58   14     1       0.4931244833E+00      34  102    1      -0.5405630227E+05      0.8631666718E+05      0.8627933476E+06      0.4931244833E+00
          0                 3           2            58   14     1       0.4914411093E+00      34  102    1      -0.2702867546E+04      0.4316084022E+04      0.8631666718E+05      0.4914411093E+00
          1                 3           0            58   14     1       0.3440087707E+00      29  102    1      -0.7622111507E+05      0.7622142911E+05      0.4316084022E+04      0.4914411093E+00
          2                 3           0            58   14     1       0.2408061354E+00      29  102    1      -0.6959619464E+04      0.7108284969E+04      0.7622142911E+05      0.4914411093E+00
          0                 4           2            58   14     1       0.4906147588E+00      34  102    1      -0.1444669500E+04      0.2307160256E+04      0.7108284969E+04      0.4906147588E+00
          1                 4           0            58   14     1       0.3434303253E+00      29  102    1      -0.1880811867E+06      0.1880812284E+06      0.2307160256E+04      0.4906147588E+00
          2                 4           0            58   14     1       0.2404012236E+00      29  102    1      -0.1191996164E+06      0.1192021281E+06      0.1880812284E+06      0.4906147588E+00
          3                 4           0            58   14     1       0.1682808537E+00      29  102    1      -0.7098262877E+05      0.7099334553E+05      0.1192021281E+06      0.4906147588E+00
          4                 4           0            58   14     1       0.1177965956E+00      29  102    1      -0.3723079227E+05      0.3726327249E+05      0.7099334553E+05      0.4906147588E+00
                                                   Max.-Head-Change                        Max.-Flux-Residual
  Residual-Control   Outer-Iter.   Inner-Iter.     Column Row Layer    Max.-Head-Change    Column Row Layer    Max.-Flux-Residual            L2-New               L2-Old           Solver-Max-Delh
          5                 4           0            58   14     1       0.8245761550E-01      29  102    1      -0.1360453370E+05      0.1372060912E+05      0.3726327249E+05      0.4906147588E+00
          0                 5           2            58   14     1       0.4903317711E+00      34  102    1      -0.1213999336E+04      0.1938890660E+04      0.1372060912E+05      0.4903317711E+00
          1                 5           0            58   14     1       0.3432322339E+00      29  102    1      -0.2262386179E+06      0.2262386453E+06      0.1938890660E+04      0.4903317711E+00
          2                 5           0            58   14     1       0.2402625597E+00      29  102    1      -0.1574866633E+06      0.1574880085E+06      0.2262386453E+06      0.4903317711E+00
          3                 5           0            58   14     1       0.1681837889E+00      29  102    1      -0.1093604062E+06      0.1093653213E+06      0.1574880085E+06      0.4903317711E+00
          4                 5           0            58   14     1       0.1177286502E+00      29  102    1      -0.7567208090E+05      0.7568337279E+05      0.1093653213E+06      0.4903317711E+00
          5                 5           0            58   14     1       0.8241005375E-01      29  102    1      -0.5209028005E+05      0.5211177847E+05      0.7568337279E+05      0.4903317711E+00
          6                 5           0            58   14     1       0.5768703665E-01      29  102    1      -0.3558303271E+05      0.3562031608E+05      0.5211177847E+05      0.4903317711E+00
          7                 5           0            58   14     1       0.4038092496E-01      29  102    1      -0.2402796614E+05      0.2408960300E+05      0.3562031608E+05      0.4903317711E+00
          8                 5           0            58   14     1       0.2826664699E-01      29  102    1      -0.1593942278E+05      0.1603929744E+05      0.2408960300E+05      0.4903317711E+00
                                                   Max.-Head-Change                        Max.-Flux-Residual
  Residual-Control   Outer-Iter.   Inner-Iter.     Column Row Layer    Max.-Head-Change    Column Row Layer    Max.-Flux-Residual            L2-New               L2-Old           Solver-Max-Delh
          9                 5           0            58   14     1       0.1978665256E-01      29  102    1      -0.1027744406E+05      0.1043955859E+05      0.1603929744E+05      0.4903317711E+00
         10                 5           0            58   14     1       0.1385065656E-01      29  102    1      -0.6314059772E+04      0.6583586202E+04      0.1043955859E+05      0.4903317711E+00
         11                 5           0            58   14     1       0.9695459423E-02      29  102    1      -0.3539691183E+04      0.4011145535E+04      0.6583586202E+04      0.4903317711E+00
         12                 5           0            58   14     1       0.6786821481E-02      29  102    1      -0.1597633383E+04      0.2484236690E+04      0.4011145535E+04      0.4903317711E+00
          0                 6           2            58   14     1       0.4903084790E+00      34  102    1      -0.1198035687E+04      0.1928059306E+04      0.2484236690E+04      0.4903084790E+00

    ------------------------------------------------
       NWT REQUIRED            6 OUTER ITERATIONS 
       AND A TOTAL OF         12 INNER ITERATIONS.
    ------------------------------------------------

 OUTPUT CONTROL FOR STRESS PERIOD    1   TIME STEP   16
    SAVE HEAD FOR ALL LAYERS
    SAVE DRAWDOWN FOR ALL LAYERS
    SAVE BUDGET
    PRINT BUDGET
 UBDSV1 SAVING "         STORAGE" ON UNIT   9 AT TIME STEP 16, STRESS PERIOD   1
 UBDSV2 SAVING "   CONSTANT HEAD" ON UNIT   9 AT TIME STEP 16, STRESS PERIOD   1
 UBDSV1 SAVING "FLOW RIGHT FACE " ON UNIT   9 AT TIME STEP 16, STRESS PERIOD   1
 UBDSV1 SAVING "FLOW FRONT FACE " ON UNIT   9 AT TIME STEP 16, STRESS PERIOD   1
 UBDSV4 SAVING "   RIVER LEAKAGE" ON UNIT   9 AT TIME STEP 16, STRESS PERIOD   1
 UBDSV3 SAVING "        RECHARGE" ON UNIT   9 AT TIME STEP 16, STRESS PERIOD   1

 HEAD WILL BE SAVED ON UNIT   37 AT END OF TIME STEP   16, STRESS PERIOD    1

 DRAWDOWN WILL BE SAVED ON UNIT   38 AT END OF TIME STEP   16, STRESS PERIOD    1
1
  VOLUMETRIC BUDGET FOR ENTIRE MODEL AT END OF TIME STEP   16, STRESS PERIOD   1
  ------------------------------------------------------------------------------

     CUMULATIVE VOLUMES      L**3       RATES FOR THIS TIME STEP      L**3/T
     ------------------                 ------------------------

           IN:                                      IN:
           ---                                      ---
             STORAGE =    15153629.0000               STORAGE =      941233.2500
       CONSTANT HEAD =           0.0000         CONSTANT HEAD =           0.0000
       RIVER LEAKAGE =    55674732.0000         RIVER LEAKAGE =     2635389.7500
            RECHARGE =        1007.9951              RECHARGE =           0.6926

            TOTAL IN =    70829368.0000              TOTAL IN =     3576623.7500

          OUT:                                     OUT:
          ----                                     ----
             STORAGE =    70827216.0000               STORAGE =     3574692.0000
       CONSTANT HEAD =           0.0000         CONSTANT HEAD =           0.0000
       RIVER LEAKAGE =       10688.4951         RIVER LEAKAGE =        2107.0090
            RECHARGE =           0.0000              RECHARGE =           0.0000

           TOTAL OUT =    70837904.0000             TOTAL OUT =     3576799.0000

            IN - OUT =       -8536.0000              IN - OUT =        -175.2500

 PERCENT DISCREPANCY =          -0.01     PERCENT DISCREPANCY =          -0.00






         TIME SUMMARY AT END OF TIME STEP   16 IN STRESS PERIOD    1
                    SECONDS     MINUTES      HOURS       DAYS        YEARS
                    -----------------------------------------------------------
   TIME STEP LENGTH  86400.      1440.0      24.000      1.0000     2.73785E-03
 STRESS PERIOD TIME 1.38240E+06  23040.      384.00      16.000     4.38056E-02
         TOTAL TIME 1.38240E+06  23040.      384.00      16.000     4.38056E-02
1
 
 SOLVING FOR HEAD 
                                                   Max.-Head-Change                        Max.-Flux-Residual
  Residual-Control   Outer-Iter.   Inner-Iter.     Column Row Layer    Max.-Head-Change    Column Row Layer    Max.-Flux-Residual            L2-New               L2-Old           Solver-Max-Delh
          0                 1           2            62   30     1       0.8822134962E+00      34  102    1       0.5400079216E+06      0.8621715084E+06      0.1019551627E+03      0.8822134962E+00
          0                 2           2            57   59     1       0.7078569564E+00      34  102    1      -0.5400799035E+05      0.8681811930E+05      0.8621715084E+06      0.7078569564E+00
          0                 3           2            58   14     1       0.5160624282E+00      61   57    1      -0.4427655618E+04      0.6424131999E+04      0.8681811930E+05      0.5160624282E+00

    ------------------------------------------------
       NWT REQUIRED            3 OUTER ITERATIONS 
       AND A TOTAL OF          6 INNER ITERATIONS.
    ------------------------------------------------

 OUTPUT CONTROL FOR STRESS PERIOD    1   TIME STEP   17
    SAVE HEAD FOR ALL LAYERS
    SAVE DRAWDOWN FOR ALL LAYERS
    SAVE BUDGET
    PRINT BUDGET
 UBDSV1 SAVING "         STORAGE" ON UNIT   9 AT TIME STEP 17, STRESS PERIOD   1
 UBDSV2 SAVING "   CONSTANT HEAD" ON UNIT   9 AT TIME STEP 17, STRESS PERIOD   1
 UBDSV1 SAVING "FLOW RIGHT FACE " ON UNIT   9 AT TIME STEP 17, STRESS PERIOD   1
 UBDSV1 SAVING "FLOW FRONT FACE " ON UNIT   9 AT TIME STEP 17, STRESS PERIOD   1
 UBDSV4 SAVING "   RIVER LEAKAGE" ON UNIT   9 AT TIME STEP 17, STRESS PERIOD   1
 UBDSV3 SAVING "        RECHARGE" ON UNIT   9 AT TIME STEP 17, STRESS PERIOD   1

 HEAD WILL BE SAVED ON UNIT   37 AT END OF TIME STEP   17, STRESS PERIOD    1

 DRAWDOWN WILL BE SAVED ON UNIT   38 AT END OF TIME STEP   17, STRESS PERIOD    1
1
  VOLUMETRIC BUDGET FOR ENTIRE MODEL AT END OF TIME STEP   17, STRESS PERIOD   1
  ------------------------------------------------------------------------------

     CUMULATIVE VOLUMES      L**3       RATES FOR THIS TIME STEP      L**3/T
     ------------------                 ------------------------

           IN:                                      IN:
           ---                                      ---
             STORAGE =    16094337.0000               STORAGE =      940707.8125
       CONSTANT HEAD =           0.0000         CONSTANT HEAD =           0.0000
       RIVER LEAKAGE =    58299464.0000         RIVER LEAKAGE =     2624734.0000
            RECHARGE =        1008.5138              RECHARGE =           0.5187

            TOTAL IN =    74394808.0000              TOTAL IN =     3565442.2500

          OUT:                                     OUT:
          ----                                     ----
             STORAGE =    74391240.0000               STORAGE =     3564022.5000
       CONSTANT HEAD =           0.0000         CONSTANT HEAD =           0.0000
       RIVER LEAKAGE =       12997.9258         RIVER LEAKAGE =        2309.4307
            RECHARGE =           0.0000              RECHARGE =           0.0000

           TOTAL OUT =    74404240.0000             TOTAL OUT =     3566332.0000

            IN - OUT =       -9432.0000              IN - OUT =        -889.7500

 PERCENT DISCREPANCY =          -0.01     PERCENT DISCREPANCY =          -0.02






         TIME SUMMARY AT END OF TIME STEP   17 IN STRESS PERIOD    1
                    SECONDS     MINUTES      HOURS       DAYS        YEARS
                    -----------------------------------------------------------
   TIME STEP LENGTH  86400.      1440.0      24.000      1.0000     2.73785E-03
 STRESS PERIOD TIME 1.46880E+06  24480.      408.00      17.000     4.65435E-02
         TOTAL TIME 1.46880E+06  24480.      408.00      17.000     4.65435E-02
1
 
 SOLVING FOR HEAD 
                                                   Max.-Head-Change                        Max.-Flux-Residual
  Residual-Control   Outer-Iter.   Inner-Iter.     Column Row Layer    Max.-Head-Change    Column Row Layer    Max.-Flux-Residual            L2-New               L2-Old           Solver-Max-Delh
          0                 1           2            62   30     1       0.8821393908E+00      34  102    1       0.5395192445E+06      0.8613592479E+06      0.3229987510E+03      0.8821393908E+00
          0                 2           2            58   14     1       0.5430247668E+00      34  102    1      -0.5395910842E+05      0.8596992290E+05      0.8613592479E+06      0.5430247668E+00
          0                 3           2            58   14     1       0.5409394803E+00      34  102    1      -0.2698007644E+04      0.4328507295E+04      0.8596992290E+05      0.5409394803E+00

    ------------------------------------------------
       NWT REQUIRED            3 OUTER ITERATIONS 
       AND A TOTAL OF          6 INNER ITERATIONS.
    ------------------------------------------------

 OUTPUT CONTROL FOR STRESS PERIOD    1   TIME STEP   18
    SAVE HEAD FOR ALL LAYERS
    SAVE DRAWDOWN FOR ALL LAYERS
    SAVE BUDGET
    PRINT BUDGET
 UBDSV1 SAVING "         STORAGE" ON UNIT   9 AT TIME STEP 18, STRESS PERIOD   1
 UBDSV2 SAVING "   CONSTANT HEAD" ON UNIT   9 AT TIME STEP 18, STRESS PERIOD   1
 UBDSV1 SAVING "FLOW RIGHT FACE " ON UNIT   9 AT TIME STEP 18, STRESS PERIOD   1
 UBDSV1 SAVING "FLOW FRONT FACE " ON UNIT   9 AT TIME STEP 18, STRESS PERIOD   1
 UBDSV4 SAVING "   RIVER LEAKAGE" ON UNIT   9 AT TIME STEP 18, STRESS PERIOD   1
 UBDSV3 SAVING "        RECHARGE" ON UNIT   9 AT TIME STEP 18, STRESS PERIOD   1

 HEAD WILL BE SAVED ON UNIT   37 AT END OF TIME STEP   18, STRESS PERIOD    1

 DRAWDOWN WILL BE SAVED ON UNIT   38 AT END OF TIME STEP   18, STRESS PERIOD    1
1
  VOLUMETRIC BUDGET FOR ENTIRE MODEL AT END OF TIME STEP   18, STRESS PERIOD   1
  ------------------------------------------------------------------------------

     CUMULATIVE VOLUMES      L**3       RATES FOR THIS TIME STEP      L**3/T
     ------------------                 ------------------------

           IN:                                      IN:
           ---                                      ---
             STORAGE =    17034388.0000               STORAGE =      940052.0000
       CONSTANT HEAD =           0.0000         CONSTANT HEAD =           0.0000
       RIVER LEAKAGE =    60905292.0000         RIVER LEAKAGE =     2605828.5000
            RECHARGE =        1008.9046              RECHARGE =           0.3908

            TOTAL IN =    77940688.0000              TOTAL IN =     3545881.0000

          OUT:                                     OUT:
          ----                                     ----
             STORAGE =    77935128.0000               STORAGE =     3543887.7500
       CONSTANT HEAD =           0.0000         CONSTANT HEAD =           0.0000
       RIVER LEAKAGE =       15512.4961         RIVER LEAKAGE =        2514.5706
            RECHARGE =           0.0000              RECHARGE =           0.0000

           TOTAL OUT =    77950640.0000             TOTAL OUT =     3546402.2500

            IN - OUT =       -9952.0000              IN - OUT =        -521.2500

 PERCENT DISCREPANCY =          -0.01     PERCENT DISCREPANCY =          -0.01






         TIME SUMMARY AT END OF TIME STEP   18 IN STRESS PERIOD    1
                    SECONDS     MINUTES      HOURS       DAYS        YEARS
                    -----------------------------------------------------------
   TIME STEP LENGTH  86400.      1440.0      24.000      1.0000     2.73785E-03
 STRESS PERIOD TIME 1.55520E+06  25920.      432.00      18.000     4.92813E-02
         TOTAL TIME 1.55520E+06  25920.      432.00      18.000     4.92813E-02
1
 
 SOLVING FOR HEAD 
                                                   Max.-Head-Change                        Max.-Flux-Residual
  Residual-Control   Outer-Iter.   Inner-Iter.     Column Row Layer    Max.-Head-Change    Column Row Layer    Max.-Flux-Residual            L2-New               L2-Old           Solver-Max-Delh
          0                 1           2            62   30     1       0.1614376003E+01      34  102    1       0.5390249694E+06      0.8598381854E+06      0.2193104338E+03      0.1614376003E+01
          0                 2           2            58   14     1       0.5672132418E+00      34  102    1       0.6268481639E+05      0.9175063397E+05      0.8598381854E+06      0.5672132418E+00
          0                 3           2            58   14     1       0.5649142415E+00      34  102    1      -0.6267999996E+04      0.7105917370E+04      0.9175063397E+05      0.5649142415E+00
          1                 3           0            58   14     1       0.3954399623E+00      58   14    1      -0.4324288327E+05      0.4324435844E+05      0.7105917370E+04      0.5649142415E+00
          2                 3           0            58   14     1       0.2768079689E+00      58   14    1      -0.2629189521E+05      0.2639946223E+05      0.4324435844E+05      0.5649142415E+00
          3                 3           0            58   14     1       0.1937655749E+00      58   14    1      -0.1442654589E+05      0.1491817004E+05      0.2639946223E+05      0.5649142415E+00
          0                 4           2            35   43     1       0.2353122279E+00      58   14    1      -0.6120969162E+04      0.7772734206E+04      0.1491817004E+05      0.2353122279E+00

    ------------------------------------------------
       NWT REQUIRED            4 OUTER ITERATIONS 
       AND A TOTAL OF          8 INNER ITERATIONS.
    ------------------------------------------------

 OUTPUT CONTROL FOR STRESS PERIOD    1   TIME STEP   19
    SAVE HEAD FOR ALL LAYERS
    SAVE DRAWDOWN FOR ALL LAYERS
    SAVE BUDGET
    PRINT BUDGET
 UBDSV1 SAVING "         STORAGE" ON UNIT   9 AT TIME STEP 19, STRESS PERIOD   1
 UBDSV2 SAVING "   CONSTANT HEAD" ON UNIT   9 AT TIME STEP 19, STRESS PERIOD   1
 UBDSV1 SAVING "FLOW RIGHT FACE " ON UNIT   9 AT TIME STEP 19, STRESS PERIOD   1
 UBDSV1 SAVING "FLOW FRONT FACE " ON UNIT   9 AT TIME STEP 19, STRESS PERIOD   1
 UBDSV4 SAVING "   RIVER LEAKAGE" ON UNIT   9 AT TIME STEP 19, STRESS PERIOD   1
 UBDSV3 SAVING "        RECHARGE" ON UNIT   9 AT TIME STEP 19, STRESS PERIOD   1

 HEAD WILL BE SAVED ON UNIT   37 AT END OF TIME STEP   19, STRESS PERIOD    1

 DRAWDOWN WILL BE SAVED ON UNIT   38 AT END OF TIME STEP   19, STRESS PERIOD    1
1
  VOLUMETRIC BUDGET FOR ENTIRE MODEL AT END OF TIME STEP   19, STRESS PERIOD   1
  ------------------------------------------------------------------------------

     CUMULATIVE VOLUMES      L**3       RATES FOR THIS TIME STEP      L**3/T
     ------------------                 ------------------------

           IN:                                      IN:
           ---                                      ---
             STORAGE =    17973700.0000               STORAGE =      939312.6875
       CONSTANT HEAD =           0.0000         CONSTANT HEAD =           0.0000
       RIVER LEAKAGE =    63374176.0000         RIVER LEAKAGE =     2468884.0000
            RECHARGE =        1009.2007              RECHARGE =           0.2961

            TOTAL IN =    81348880.0000              TOTAL IN =     3408197.0000

          OUT:                                     OUT:
          ----                                     ----
             STORAGE =    81341280.0000               STORAGE =     3406150.2500
       CONSTANT HEAD =           0.0000         CONSTANT HEAD =           0.0000
       RIVER LEAKAGE =       18279.7734         RIVER LEAKAGE =        2767.2771
            RECHARGE =           0.0000              RECHARGE =           0.0000

           TOTAL OUT =    81359560.0000             TOTAL OUT =     3408917.5000

            IN - OUT =      -10680.0000              IN - OUT =        -720.5000

 PERCENT DISCREPANCY =          -0.01     PERCENT DISCREPANCY =          -0.02






         TIME SUMMARY AT END OF TIME STEP   19 IN STRESS PERIOD    1
                    SECONDS     MINUTES      HOURS       DAYS        YEARS
                    -----------------------------------------------------------
   TIME STEP LENGTH  86400.      1440.0      24.000      1.0000     2.73785E-03
 STRESS PERIOD TIME 1.64160E+06  27360.      456.00      19.000     5.20192E-02
         TOTAL TIME 1.64160E+06  27360.      456.00      19.000     5.20192E-02
1
 
 SOLVING FOR HEAD 
                                                   Max.-Head-Change                        Max.-Flux-Residual
  Residual-Control   Outer-Iter.   Inner-Iter.     Column Row Layer    Max.-Head-Change    Column Row Layer    Max.-Flux-Residual            L2-New               L2-Old           Solver-Max-Delh
          0                 1           2            34  102     1       0.2967235709E+01      34  101    1       0.4829861216E+06      0.8162334157E+06      0.3903679601E+03      0.2967235709E+01
          0                 2           2            46   56     1       0.1714756215E+01      34  101    1      -0.4830420843E+05      0.8729820338E+05      0.8162334157E+06      0.1714756215E+01
          0                 3           2            35   43     1       0.2461935416E+00      41   54    1      -0.8646970553E+04      0.1005689943E+05      0.8729820338E+05      0.2461935416E+00
          1                 3           0            35   43     1       0.1723354762E+00      41   89    1      -0.2093703024E+05      0.2115721637E+05      0.1005689943E+05      0.2461935416E+00
          2                 3           0            35   43     1       0.1206348313E+00      41   89    1      -0.1404227982E+05      0.1453365246E+05      0.2115721637E+05      0.2461935416E+00
          0                 4           2            35   43     1       0.2459039805E+00      41   89    1      -0.9215956019E+04      0.1069116250E+05      0.1453365246E+05      0.2459039805E+00
          0                 5           2            35   43     1       0.2453136968E+00      42   34    1      -0.1067379954E+04      0.1194353824E+04      0.1069116250E+05      0.2453136968E+00

    ------------------------------------------------
       NWT REQUIRED            5 OUTER ITERATIONS 
       AND A TOTAL OF         10 INNER ITERATIONS.
    ------------------------------------------------

 OUTPUT CONTROL FOR STRESS PERIOD    1   TIME STEP   20
    SAVE HEAD FOR ALL LAYERS
    SAVE DRAWDOWN FOR ALL LAYERS
    SAVE BUDGET
    PRINT BUDGET
 UBDSV1 SAVING "         STORAGE" ON UNIT   9 AT TIME STEP 20, STRESS PERIOD   1
 UBDSV2 SAVING "   CONSTANT HEAD" ON UNIT   9 AT TIME STEP 20, STRESS PERIOD   1
 UBDSV1 SAVING "FLOW RIGHT FACE " ON UNIT   9 AT TIME STEP 20, STRESS PERIOD   1
 UBDSV1 SAVING "FLOW FRONT FACE " ON UNIT   9 AT TIME STEP 20, STRESS PERIOD   1
 UBDSV4 SAVING "   RIVER LEAKAGE" ON UNIT   9 AT TIME STEP 20, STRESS PERIOD   1
 UBDSV3 SAVING "        RECHARGE" ON UNIT   9 AT TIME STEP 20, STRESS PERIOD   1

 HEAD WILL BE SAVED ON UNIT   37 AT END OF TIME STEP   20, STRESS PERIOD    1

 DRAWDOWN WILL BE SAVED ON UNIT   38 AT END OF TIME STEP   20, STRESS PERIOD    1
1
  VOLUMETRIC BUDGET FOR ENTIRE MODEL AT END OF TIME STEP   20, STRESS PERIOD   1
  ------------------------------------------------------------------------------

     CUMULATIVE VOLUMES      L**3       RATES FOR THIS TIME STEP      L**3/T
     ------------------                 ------------------------

           IN:                                      IN:
           ---                                      ---
             STORAGE =    18912166.0000               STORAGE =      938466.4375
       CONSTANT HEAD =           0.0000         CONSTANT HEAD =           0.0000
       RIVER LEAKAGE =    65334420.0000         RIVER LEAKAGE =     1960245.1250
            RECHARGE =        1009.4261              RECHARGE =           0.2254

            TOTAL IN =    84247592.0000              TOTAL IN =     2898711.7500

          OUT:                                     OUT:
          ----                                     ----
             STORAGE =    84237016.0000               STORAGE =     2895736.5000
       CONSTANT HEAD =           0.0000         CONSTANT HEAD =           0.0000
       RIVER LEAKAGE =       21228.3867         RIVER LEAKAGE =        2948.6128
            RECHARGE =           0.0000              RECHARGE =           0.0000

           TOTAL OUT =    84258248.0000             TOTAL OUT =     2898685.0000

            IN - OUT =      -10656.0000              IN - OUT =          26.7500

 PERCENT DISCREPANCY =          -0.01     PERCENT DISCREPANCY =           0.00






         TIME SUMMARY AT END OF TIME STEP   20 IN STRESS PERIOD    1
                    SECONDS     MINUTES      HOURS       DAYS        YEARS
                    -----------------------------------------------------------
   TIME STEP LENGTH  86400.      1440.0      24.000      1.0000     2.73785E-03
 STRESS PERIOD TIME 1.72800E+06  28800.      480.00      20.000     5.47570E-02
         TOTAL TIME 1.72800E+06  28800.      480.00      20.000     5.47570E-02
1
 
 SOLVING FOR HEAD 
                                                   Max.-Head-Change                        Max.-Flux-Residual
  Residual-Control   Outer-Iter.   Inner-Iter.     Column Row Layer    Max.-Head-Change    Column Row Layer    Max.-Flux-Residual            L2-New               L2-Old           Solver-Max-Delh
          0                 1           2            40   51     1       0.7683206333E+00      34  101    1       0.4826918621E+06      0.6640918237E+06      0.7371751187E+02      0.7683206333E+00
          0                 2           2            35   43     1       0.2565762972E+00      30  105    1      -0.8805249658E+05      0.1102918630E+06      0.6640918237E+06      0.2565762972E+00
          0                 3           2            35   43     1       0.2559323841E+00      30  105    1      -0.4402727659E+04      0.5514836797E+04      0.1102918630E+06      0.2559323841E+00

    ------------------------------------------------
       NWT REQUIRED            3 OUTER ITERATIONS 
       AND A TOTAL OF          6 INNER ITERATIONS.
    ------------------------------------------------

 OUTPUT CONTROL FOR STRESS PERIOD    1   TIME STEP   21
    SAVE HEAD FOR ALL LAYERS
    SAVE DRAWDOWN FOR ALL LAYERS
    SAVE BUDGET
    PRINT BUDGET
 UBDSV1 SAVING "         STORAGE" ON UNIT   9 AT TIME STEP 21, STRESS PERIOD   1
 UBDSV2 SAVING "   CONSTANT HEAD" ON UNIT   9 AT TIME STEP 21, STRESS PERIOD   1
 UBDSV1 SAVING "FLOW RIGHT FACE " ON UNIT   9 AT TIME STEP 21, STRESS PERIOD   1
 UBDSV1 SAVING "FLOW FRONT FACE " ON UNIT   9 AT TIME STEP 21, STRESS PERIOD   1
 UBDSV4 SAVING "   RIVER LEAKAGE" ON UNIT   9 AT TIME STEP 21, STRESS PERIOD   1
 UBDSV3 SAVING "        RECHARGE" ON UNIT   9 AT TIME STEP 21, STRESS PERIOD   1

 HEAD WILL BE SAVED ON UNIT   37 AT END OF TIME STEP   21, STRESS PERIOD    1

 DRAWDOWN WILL BE SAVED ON UNIT   38 AT END OF TIME STEP   21, STRESS PERIOD    1
1
  VOLUMETRIC BUDGET FOR ENTIRE MODEL AT END OF TIME STEP   21, STRESS PERIOD   1
  ------------------------------------------------------------------------------

     CUMULATIVE VOLUMES      L**3       RATES FOR THIS TIME STEP      L**3/T
     ------------------                 ------------------------

           IN:                                      IN:
           ---                                      ---
             STORAGE =    19850218.0000               STORAGE =      938052.0625
       CONSTANT HEAD =           0.0000         CONSTANT HEAD =           0.0000
       RIVER LEAKAGE =    67289120.0000         RIVER LEAKAGE =     1954697.8750
            RECHARGE =        1009.5984              RECHARGE =           0.1723

            TOTAL IN =    87140344.0000              TOTAL IN =     2892750.0000

          OUT:                                     OUT:
          ----                                     ----
             STORAGE =    87127384.0000               STORAGE =     2890368.5000
       CONSTANT HEAD =           0.0000         CONSTANT HEAD =           0.0000
       RIVER LEAKAGE =       24177.3789         RIVER LEAKAGE =        2948.9912
            RECHARGE =           0.0000              RECHARGE =           0.0000

           TOTAL OUT =    87151560.0000             TOTAL OUT =     2893317.5000

            IN - OUT =      -11216.0000              IN - OUT =        -567.5000

 PERCENT DISCREPANCY =          -0.01     PERCENT DISCREPANCY =          -0.02






         TIME SUMMARY AT END OF TIME STEP   21 IN STRESS PERIOD    1
                    SECONDS     MINUTES      HOURS       DAYS        YEARS
                    -----------------------------------------------------------
   TIME STEP LENGTH  86400.      1440.0      24.000      1.0000     2.73785E-03
 STRESS PERIOD TIME 1.81440E+06  30240.      504.00      21.000     5.74949E-02
         TOTAL TIME 1.81440E+06  30240.      504.00      21.000     5.74949E-02
1
 
 SOLVING FOR HEAD 
                                                   Max.-Head-Change                        Max.-Flux-Residual
  Residual-Control   Outer-Iter.   Inner-Iter.     Column Row Layer    Max.-Head-Change    Column Row Layer    Max.-Flux-Residual            L2-New               L2-Old           Solver-Max-Delh
          0                 1           2            40   51     1       0.7682526706E+00      34  101    1       0.4822141676E+06      0.6636057619E+06      0.2783164116E+03      0.7682526706E+00
          0                 2           2            34  101     1       0.2129208901E+01      34  101    1       0.3033435067E+06      0.3067556965E+06      0.6636057619E+06      0.2129208901E+01
          0                 3           2            35   43     1       0.2663055515E+00      34  101    1      -0.3033435525E+05      0.3042001381E+05      0.3067556965E+06      0.2663055515E+00
          1                 3           0            35   43     1       0.1864138829E+00      39   82    1      -0.4078804025E+05      0.4081641088E+05      0.3042001381E+05      0.2663055515E+00
          0                 4           2            35   43     1       0.2658135505E+00      34  101    1      -0.1016200881E+05      0.1019076406E+05      0.4081641088E+05      0.2658135505E+00
          0                 5           2            35   43     1       0.2651119309E+00      36   81    1      -0.2336998516E+04      0.2392107599E+04      0.1019076406E+05      0.2651119309E+00
          1                 5           0            35   43     1       0.1855783485E+00      37   80    1      -0.1501881224E+06      0.1501881874E+06      0.2392107599E+04      0.2651119309E+00
          2                 5           0            35   43     1       0.1299048417E+00      37   80    1      -0.9621149833E+05      0.9621484871E+05      0.1501881874E+06      0.2651119309E+00
          3                 5           0            35   43     1       0.9093338767E-01      37   80    1      -0.5842794753E+05      0.5844194573E+05      0.9621484871E+05      0.2651119309E+00
          4                 5           0            35   43     1       0.6365337028E-01      37   80    1      -0.3197950426E+05      0.3202014736E+05      0.5844194573E+05      0.2651119309E+00
                                                   Max.-Head-Change                        Max.-Flux-Residual
  Residual-Control   Outer-Iter.   Inner-Iter.     Column Row Layer    Max.-Head-Change    Column Row Layer    Max.-Flux-Residual            L2-New               L2-Old           Solver-Max-Delh
          5                 5           0            35   43     1       0.4455735844E-01      37   80    1      -0.1346561479E+05      0.1359163277E+05      0.3202014736E+05      0.2651119309E+00
          0                 6           2            35   43     1       0.2649943174E+00      36   81    1      -0.1963858168E+04      0.2072863208E+04      0.1359163277E+05      0.2649943174E+00

    ------------------------------------------------
       NWT REQUIRED            6 OUTER ITERATIONS 
       AND A TOTAL OF         12 INNER ITERATIONS.
    ------------------------------------------------

 OUTPUT CONTROL FOR STRESS PERIOD    1   TIME STEP   22
    SAVE HEAD FOR ALL LAYERS
    SAVE DRAWDOWN FOR ALL LAYERS
    SAVE BUDGET
    PRINT BUDGET
 UBDSV1 SAVING "         STORAGE" ON UNIT   9 AT TIME STEP 22, STRESS PERIOD   1
 UBDSV2 SAVING "   CONSTANT HEAD" ON UNIT   9 AT TIME STEP 22, STRESS PERIOD   1
 UBDSV1 SAVING "FLOW RIGHT FACE " ON UNIT   9 AT TIME STEP 22, STRESS PERIOD   1
 UBDSV1 SAVING "FLOW FRONT FACE " ON UNIT   9 AT TIME STEP 22, STRESS PERIOD   1
 UBDSV4 SAVING "   RIVER LEAKAGE" ON UNIT   9 AT TIME STEP 22, STRESS PERIOD   1
 UBDSV3 SAVING "        RECHARGE" ON UNIT   9 AT TIME STEP 22, STRESS PERIOD   1

 HEAD WILL BE SAVED ON UNIT   37 AT END OF TIME STEP   22, STRESS PERIOD    1

 DRAWDOWN WILL BE SAVED ON UNIT   38 AT END OF TIME STEP   22, STRESS PERIOD    1
1
  VOLUMETRIC BUDGET FOR ENTIRE MODEL AT END OF TIME STEP   22, STRESS PERIOD   1
  ------------------------------------------------------------------------------

     CUMULATIVE VOLUMES      L**3       RATES FOR THIS TIME STEP      L**3/T
     ------------------                 ------------------------

           IN:                                      IN:
           ---                                      ---
             STORAGE =    20787364.0000               STORAGE =      937145.3125
       CONSTANT HEAD =           0.0000         CONSTANT HEAD =           0.0000
       RIVER LEAKAGE =    68894320.0000         RIVER LEAKAGE =     1605196.6250
            RECHARGE =        1009.7308              RECHARGE =           0.1323

            TOTAL IN =    89682688.0000              TOTAL IN =     2542342.0000

          OUT:                                     OUT:
          ----                                     ----
             STORAGE =    89666824.0000               STORAGE =     2539443.0000
       CONSTANT HEAD =           0.0000         CONSTANT HEAD =           0.0000
       RIVER LEAKAGE =       27130.8750         RIVER LEAKAGE =        2953.4951
            RECHARGE =           0.0000              RECHARGE =           0.0000

           TOTAL OUT =    89693952.0000             TOTAL OUT =     2542396.5000

            IN - OUT =      -11264.0000              IN - OUT =         -54.5000

 PERCENT DISCREPANCY =          -0.01     PERCENT DISCREPANCY =          -0.00






         TIME SUMMARY AT END OF TIME STEP   22 IN STRESS PERIOD    1
                    SECONDS     MINUTES      HOURS       DAYS        YEARS
                    -----------------------------------------------------------
   TIME STEP LENGTH  86400.      1440.0      24.000      1.0000     2.73785E-03
 STRESS PERIOD TIME 1.90080E+06  31680.      528.00      22.000     6.02327E-02
         TOTAL TIME 1.90080E+06  31680.      528.00      22.000     6.02327E-02
1
 
 SOLVING FOR HEAD 
                                                   Max.-Head-Change                        Max.-Flux-Residual
  Residual-Control   Outer-Iter.   Inner-Iter.     Column Row Layer    Max.-Head-Change    Column Row Layer    Max.-Flux-Residual            L2-New               L2-Old           Solver-Max-Delh
          0                 1           2            34  101     1       0.9287845617E+00      34   89    1       0.3423627240E+06      0.4745441410E+06      0.1083556495E+03      0.9287845617E+00
          0                 2           2            35   43     1       0.2758390494E+00      34   89    1      -0.3423907694E+05      0.4745795272E+05      0.4745441410E+06      0.2758390494E+00
          0                 3           2            35   43     1       0.2750808968E+00      39   81    1      -0.1174831296E+05      0.1198559130E+05      0.4745795272E+05      0.2750808968E+00
          0                 4           2            35   43     1       0.2743220630E+00      39   81    1      -0.5874178412E+03      0.5998943965E+03      0.1198559130E+05      0.2743220630E+00
          1                 4           0            35   43     1       0.1920254408E+00      54   27    1      -0.2509113716E+04      0.2509567071E+04      0.5998943965E+03      0.2743220630E+00

    ------------------------------------------------
       NWT REQUIRED            4 OUTER ITERATIONS 
       AND A TOTAL OF          8 INNER ITERATIONS.
    ------------------------------------------------

 OUTPUT CONTROL FOR STRESS PERIOD    1   TIME STEP   23
    SAVE HEAD FOR ALL LAYERS
    SAVE DRAWDOWN FOR ALL LAYERS
    SAVE BUDGET
    PRINT BUDGET
 UBDSV1 SAVING "         STORAGE" ON UNIT   9 AT TIME STEP 23, STRESS PERIOD   1
 UBDSV2 SAVING "   CONSTANT HEAD" ON UNIT   9 AT TIME STEP 23, STRESS PERIOD   1
 UBDSV1 SAVING "FLOW RIGHT FACE " ON UNIT   9 AT TIME STEP 23, STRESS PERIOD   1
 UBDSV1 SAVING "FLOW FRONT FACE " ON UNIT   9 AT TIME STEP 23, STRESS PERIOD   1
 UBDSV4 SAVING "   RIVER LEAKAGE" ON UNIT   9 AT TIME STEP 23, STRESS PERIOD   1
 UBDSV3 SAVING "        RECHARGE" ON UNIT   9 AT TIME STEP 23, STRESS PERIOD   1

 HEAD WILL BE SAVED ON UNIT   37 AT END OF TIME STEP   23, STRESS PERIOD    1

 DRAWDOWN WILL BE SAVED ON UNIT   38 AT END OF TIME STEP   23, STRESS PERIOD    1
1
  VOLUMETRIC BUDGET FOR ENTIRE MODEL AT END OF TIME STEP   23, STRESS PERIOD   1
  ------------------------------------------------------------------------------

     CUMULATIVE VOLUMES      L**3       RATES FOR THIS TIME STEP      L**3/T
     ------------------                 ------------------------

           IN:                                      IN:
           ---                                      ---
             STORAGE =    21723938.0000               STORAGE =      936573.1875
       CONSTANT HEAD =           0.0000         CONSTANT HEAD =           0.0000
       RIVER LEAKAGE =    70367408.0000         RIVER LEAKAGE =     1473087.2500
            RECHARGE =        1009.8327              RECHARGE =           0.1019

            TOTAL IN =    92092352.0000              TOTAL IN =     2409660.5000

          OUT:                                     OUT:
          ----                                     ----
             STORAGE =    92073768.0000               STORAGE =     2406945.5000
       CONSTANT HEAD =           0.0000         CONSTANT HEAD =           0.0000
       RIVER LEAKAGE =       30084.8262         RIVER LEAKAGE =        2953.9504
            RECHARGE =           0.0000              RECHARGE =           0.0000

           TOTAL OUT =    92103856.0000             TOTAL OUT =     2409899.5000

            IN - OUT =      -11504.0000              IN - OUT =        -239.0000

 PERCENT DISCREPANCY =          -0.01     PERCENT DISCREPANCY =          -0.01






         TIME SUMMARY AT END OF TIME STEP   23 IN STRESS PERIOD    1
                    SECONDS     MINUTES      HOURS       DAYS        YEARS
                    -----------------------------------------------------------
   TIME STEP LENGTH  86400.      1440.0      24.000      1.0000     2.73785E-03
 STRESS PERIOD TIME 1.98720E+06  33120.      552.00      23.000     6.29706E-02
         TOTAL TIME 1.98720E+06  33120.      552.00      23.000     6.29706E-02
1
 
 SOLVING FOR HEAD 
                                                   Max.-Head-Change                        Max.-Flux-Residual
  Residual-Control   Outer-Iter.   Inner-Iter.     Column Row Layer    Max.-Head-Change    Column Row Layer    Max.-Flux-Residual            L2-New               L2-Old           Solver-Max-Delh
          0                 1           2            40   51     1       0.7681157626E+00      34   89    1       0.3422217840E+06      0.4555422996E+06      0.2025814114E+03      0.7681157626E+00
          0                 2           2            35   43     1       0.2851729621E+00      34   89    1      -0.3422498039E+05      0.4680161964E+05      0.4555422996E+06      0.2851729621E+00
          0                 3           2            35   43     1       0.2843551143E+00      34   89    1      -0.1711269051E+04      0.2340297579E+04      0.4680161964E+05      0.2843551143E+00

    ------------------------------------------------
       NWT REQUIRED            3 OUTER ITERATIONS 
       AND A TOTAL OF          6 INNER ITERATIONS.
    ------------------------------------------------

 OUTPUT CONTROL FOR STRESS PERIOD    1   TIME STEP   24
    SAVE HEAD FOR ALL LAYERS
    SAVE DRAWDOWN FOR ALL LAYERS
    SAVE BUDGET
    PRINT BUDGET
 UBDSV1 SAVING "         STORAGE" ON UNIT   9 AT TIME STEP 24, STRESS PERIOD   1
 UBDSV2 SAVING "   CONSTANT HEAD" ON UNIT   9 AT TIME STEP 24, STRESS PERIOD   1
 UBDSV1 SAVING "FLOW RIGHT FACE " ON UNIT   9 AT TIME STEP 24, STRESS PERIOD   1
 UBDSV1 SAVING "FLOW FRONT FACE " ON UNIT   9 AT TIME STEP 24, STRESS PERIOD   1
 UBDSV4 SAVING "   RIVER LEAKAGE" ON UNIT   9 AT TIME STEP 24, STRESS PERIOD   1
 UBDSV3 SAVING "        RECHARGE" ON UNIT   9 AT TIME STEP 24, STRESS PERIOD   1

 HEAD WILL BE SAVED ON UNIT   37 AT END OF TIME STEP   24, STRESS PERIOD    1

 DRAWDOWN WILL BE SAVED ON UNIT   38 AT END OF TIME STEP   24, STRESS PERIOD    1
1
  VOLUMETRIC BUDGET FOR ENTIRE MODEL AT END OF TIME STEP   24, STRESS PERIOD   1
  ------------------------------------------------------------------------------

     CUMULATIVE VOLUMES      L**3       RATES FOR THIS TIME STEP      L**3/T
     ------------------                 ------------------------

           IN:                                      IN:
           ---                                      ---
             STORAGE =    22660034.0000               STORAGE =      936096.3750
       CONSTANT HEAD =           0.0000         CONSTANT HEAD =           0.0000
       RIVER LEAKAGE =    71840400.0000         RIVER LEAKAGE =     1472993.1250
            RECHARGE =        1009.9115              RECHARGE =       7.8805E-02

            TOTAL IN =    94501440.0000              TOTAL IN =     2409089.5000

          OUT:                                     OUT:
          ----                                     ----
             STORAGE =    94480208.0000               STORAGE =     2406436.2500
       CONSTANT HEAD =           0.0000         CONSTANT HEAD =           0.0000
       RIVER LEAKAGE =       33038.3672         RIVER LEAKAGE =        2953.5422
            RECHARGE =           0.0000              RECHARGE =           0.0000

           TOTAL OUT =    94513248.0000             TOTAL OUT =     2409389.7500

            IN - OUT =      -11808.0000              IN - OUT =        -300.2500

 PERCENT DISCREPANCY =          -0.01     PERCENT DISCREPANCY =          -0.01






         TIME SUMMARY AT END OF TIME STEP   24 IN STRESS PERIOD    1
                    SECONDS     MINUTES      HOURS       DAYS        YEARS
                    -----------------------------------------------------------
   TIME STEP LENGTH  86400.      1440.0      24.000      1.0000     2.73785E-03
 STRESS PERIOD TIME 2.07360E+06  34560.      576.00      24.000     6.57084E-02
         TOTAL TIME 2.07360E+06  34560.      576.00      24.000     6.57084E-02
1
 
 SOLVING FOR HEAD 
                                                   Max.-Head-Change                        Max.-Flux-Residual
  Residual-Control   Outer-Iter.   Inner-Iter.     Column Row Layer    Max.-Head-Change    Column Row Layer    Max.-Flux-Residual            L2-New               L2-Old           Solver-Max-Delh
          0                 1           2            40   51     1       0.7680471337E+00      34   89    1       0.3420785983E+06      0.4553587862E+06      0.1202642914E+03      0.7680471337E+00
          0                 2           2            35   43     1       0.2947740803E+00      34   89    1      -0.3421065924E+05      0.4657926328E+05      0.4553587862E+06      0.2947740803E+00
          0                 3           2            35   43     1       0.2938935057E+00      34   89    1      -0.1710552974E+04      0.2329182908E+04      0.4657926328E+05      0.2938935057E+00
          1                 3           0            35   43     1       0.2057254505E+00      35   43    1      -0.9041514331E+04      0.9042308552E+04      0.2329182908E+04      0.2938935057E+00
          0                 4           2            32   73     1       0.2403528564E+00      34   89    1      -0.5730232869E+03      0.8121592808E+03      0.9042308552E+04      0.2403528564E+00
          1                 4           0            32   73     1       0.1682469966E+00      32   73    1      -0.1037020774E+06      0.1038917627E+06      0.8121592808E+03      0.2403528564E+00
          2                 4           0            32   73     1       0.1177728956E+00      32   73    1      -0.3159478184E+05      0.3170623348E+05      0.1038917627E+06      0.2403528564E+00

    ------------------------------------------------
       NWT REQUIRED            4 OUTER ITERATIONS 
       AND A TOTAL OF          8 INNER ITERATIONS.
    ------------------------------------------------

 OUTPUT CONTROL FOR STRESS PERIOD    1   TIME STEP   25
    SAVE HEAD FOR ALL LAYERS
    SAVE DRAWDOWN FOR ALL LAYERS
    SAVE BUDGET
    PRINT BUDGET
 UBDSV1 SAVING "         STORAGE" ON UNIT   9 AT TIME STEP 25, STRESS PERIOD   1
 UBDSV2 SAVING "   CONSTANT HEAD" ON UNIT   9 AT TIME STEP 25, STRESS PERIOD   1
 UBDSV1 SAVING "FLOW RIGHT FACE " ON UNIT   9 AT TIME STEP 25, STRESS PERIOD   1
 UBDSV1 SAVING "FLOW FRONT FACE " ON UNIT   9 AT TIME STEP 25, STRESS PERIOD   1
 UBDSV4 SAVING "   RIVER LEAKAGE" ON UNIT   9 AT TIME STEP 25, STRESS PERIOD   1
 UBDSV3 SAVING "        RECHARGE" ON UNIT   9 AT TIME STEP 25, STRESS PERIOD   1

 HEAD WILL BE SAVED ON UNIT   37 AT END OF TIME STEP   25, STRESS PERIOD    1

 DRAWDOWN WILL BE SAVED ON UNIT   38 AT END OF TIME STEP   25, STRESS PERIOD    1
1
  VOLUMETRIC BUDGET FOR ENTIRE MODEL AT END OF TIME STEP   25, STRESS PERIOD   1
  ------------------------------------------------------------------------------

     CUMULATIVE VOLUMES      L**3       RATES FOR THIS TIME STEP      L**3/T
     ------------------                 ------------------------

           IN:                                      IN:
           ---                                      ---
             STORAGE =    23596102.0000               STORAGE =      936068.0000
       CONSTANT HEAD =           0.0000         CONSTANT HEAD =           0.0000
       RIVER LEAKAGE =    73313392.0000         RIVER LEAKAGE =     1472992.6250
            RECHARGE =        1009.9726              RECHARGE =       6.1095E-02

            TOTAL IN =    96910504.0000              TOTAL IN =     2409060.5000

          OUT:                                     OUT:
          ----                                     ----
             STORAGE =    96887848.0000               STORAGE =     2407639.0000
       CONSTANT HEAD =           0.0000         CONSTANT HEAD =           0.0000
       RIVER LEAKAGE =       35991.5000         RIVER LEAKAGE =        2953.1343
            RECHARGE =           0.0000              RECHARGE =           0.0000

           TOTAL OUT =    96923840.0000             TOTAL OUT =     2410592.2500

            IN - OUT =      -13336.0000              IN - OUT =       -1531.7500

 PERCENT DISCREPANCY =          -0.01     PERCENT DISCREPANCY =          -0.06






         TIME SUMMARY AT END OF TIME STEP   25 IN STRESS PERIOD    1
                    SECONDS     MINUTES      HOURS       DAYS        YEARS
                    -----------------------------------------------------------
   TIME STEP LENGTH  86400.      1440.0      24.000      1.0000     2.73785E-03
 STRESS PERIOD TIME 2.16000E+06  36000.      600.00      25.000     6.84463E-02
         TOTAL TIME 2.16000E+06  36000.      600.00      25.000     6.84463E-02
1
 
 SOLVING FOR HEAD 
                                                   Max.-Head-Change                        Max.-Flux-Residual
  Residual-Control   Outer-Iter.   Inner-Iter.     Column Row Layer    Max.-Head-Change    Column Row Layer    Max.-Flux-Residual            L2-New               L2-Old           Solver-Max-Delh
          0                 1           2            40   51     1       0.7679779849E+00      34   89    1       0.3419331257E+06      0.4551734226E+06      0.4459054397E+03      0.7679779849E+00
          0                 2           2            32   73     1      -0.2185554329E+00      32   73    1      -0.2300618099E+06      0.2345220660E+06      0.4551734226E+06     -0.2185554329E+00
          0                 3           2            36   37     1       0.1858842335E+00      39   79    1      -0.5491378532E+05      0.5615190751E+05      0.2345220660E+06      0.1858842335E+00
          0                 4           2            36   37     1      -0.1750534886E+00      36   37    1      -0.1842823910E+05      0.1864090024E+05      0.5615190751E+05     -0.1750534886E+00
          0                 5           2            36   83     1       0.1404794717E+00      40   53    1      -0.2900809963E+04      0.3047058842E+04      0.1864090024E+05      0.1404794717E+00

    ------------------------------------------------
       NWT REQUIRED            5 OUTER ITERATIONS 
       AND A TOTAL OF         10 INNER ITERATIONS.
    ------------------------------------------------

 OUTPUT CONTROL FOR STRESS PERIOD    1   TIME STEP   26
    SAVE HEAD FOR ALL LAYERS
    SAVE DRAWDOWN FOR ALL LAYERS
    SAVE BUDGET
    PRINT BUDGET
 UBDSV1 SAVING "         STORAGE" ON UNIT   9 AT TIME STEP 26, STRESS PERIOD   1
 UBDSV2 SAVING "   CONSTANT HEAD" ON UNIT   9 AT TIME STEP 26, STRESS PERIOD   1
 UBDSV1 SAVING "FLOW RIGHT FACE " ON UNIT   9 AT TIME STEP 26, STRESS PERIOD   1
 UBDSV1 SAVING "FLOW FRONT FACE " ON UNIT   9 AT TIME STEP 26, STRESS PERIOD   1
 UBDSV4 SAVING "   RIVER LEAKAGE" ON UNIT   9 AT TIME STEP 26, STRESS PERIOD   1
 UBDSV3 SAVING "        RECHARGE" ON UNIT   9 AT TIME STEP 26, STRESS PERIOD   1

 HEAD WILL BE SAVED ON UNIT   37 AT END OF TIME STEP   26, STRESS PERIOD    1

 DRAWDOWN WILL BE SAVED ON UNIT   38 AT END OF TIME STEP   26, STRESS PERIOD    1
1
  VOLUMETRIC BUDGET FOR ENTIRE MODEL AT END OF TIME STEP   26, STRESS PERIOD   1
  ------------------------------------------------------------------------------

     CUMULATIVE VOLUMES      L**3       RATES FOR THIS TIME STEP      L**3/T
     ------------------                 ------------------------

           IN:                                      IN:
           ---                                      ---
             STORAGE =    24530702.0000               STORAGE =      934599.8125
       CONSTANT HEAD =           0.0000         CONSTANT HEAD =           0.0000
       RIVER LEAKAGE =    74786384.0000         RIVER LEAKAGE =     1472992.1250
            RECHARGE =        1010.0201              RECHARGE =       4.7492E-02

            TOTAL IN =    99318096.0000              TOTAL IN =     2407592.0000

          OUT:                                     OUT:
          ----                                     ----
             STORAGE =    99292648.0000               STORAGE =     2404797.7500
       CONSTANT HEAD =           0.0000         CONSTANT HEAD =           0.0000
       RIVER LEAKAGE =       38944.2266         RIVER LEAKAGE =        2952.7273
            RECHARGE =           0.0000              RECHARGE =           0.0000

           TOTAL OUT =    99331592.0000             TOTAL OUT =     2407750.5000

            IN - OUT =      -13496.0000              IN - OUT =        -158.5000

 PERCENT DISCREPANCY =          -0.01     PERCENT DISCREPANCY =          -0.01






         TIME SUMMARY AT END OF TIME STEP   26 IN STRESS PERIOD    1
                    SECONDS     MINUTES      HOURS       DAYS        YEARS
                    -----------------------------------------------------------
   TIME STEP LENGTH  86400.      1440.0      24.000      1.0000     2.73785E-03
 STRESS PERIOD TIME 2.24640E+06  37440.      624.00      26.000     7.11841E-02
         TOTAL TIME 2.24640E+06  37440.      624.00      26.000     7.11841E-02
1
 
 SOLVING FOR HEAD 
                                                   Max.-Head-Change                        Max.-Flux-Residual
  Residual-Control   Outer-Iter.   Inner-Iter.     Column Row Layer    Max.-Head-Change    Column Row Layer    Max.-Flux-Residual            L2-New               L2-Old           Solver-Max-Delh
          0                 1           2            40   51     1       0.7679085967E+00      34   89    1       0.3417855705E+06      0.4549864766E+06      0.1547392272E+03      0.7679085967E+00
          0                 2           2            36   83     1       0.1448871212E+00      34   89    1      -0.3418135116E+05      0.4506785189E+05      0.4549864766E+06      0.1448871212E+00
          0                 3           2            36   83     1       0.1444121990E+00      34   89    1      -0.1709087531E+04      0.2269476885E+04      0.4506785189E+05      0.1444121990E+00

    ------------------------------------------------
       NWT REQUIRED            3 OUTER ITERATIONS 
       AND A TOTAL OF          6 INNER ITERATIONS.
    ------------------------------------------------

 OUTPUT CONTROL FOR STRESS PERIOD    1   TIME STEP   27
    SAVE HEAD FOR ALL LAYERS
    SAVE DRAWDOWN FOR ALL LAYERS
    SAVE BUDGET
    PRINT BUDGET
 UBDSV1 SAVING "         STORAGE" ON UNIT   9 AT TIME STEP 27, STRESS PERIOD   1
 UBDSV2 SAVING "   CONSTANT HEAD" ON UNIT   9 AT TIME STEP 27, STRESS PERIOD   1
 UBDSV1 SAVING "FLOW RIGHT FACE " ON UNIT   9 AT TIME STEP 27, STRESS PERIOD   1
 UBDSV1 SAVING "FLOW FRONT FACE " ON UNIT   9 AT TIME STEP 27, STRESS PERIOD   1
 UBDSV4 SAVING "   RIVER LEAKAGE" ON UNIT   9 AT TIME STEP 27, STRESS PERIOD   1
 UBDSV3 SAVING "        RECHARGE" ON UNIT   9 AT TIME STEP 27, STRESS PERIOD   1

 HEAD WILL BE SAVED ON UNIT   37 AT END OF TIME STEP   27, STRESS PERIOD    1

 DRAWDOWN WILL BE SAVED ON UNIT   38 AT END OF TIME STEP   27, STRESS PERIOD    1
1
  VOLUMETRIC BUDGET FOR ENTIRE MODEL AT END OF TIME STEP   27, STRESS PERIOD   1
  ------------------------------------------------------------------------------

     CUMULATIVE VOLUMES      L**3       RATES FOR THIS TIME STEP      L**3/T
     ------------------                 ------------------------

           IN:                                      IN:
           ---                                      ---
             STORAGE =    25464904.0000               STORAGE =      934202.4375
       CONSTANT HEAD =           0.0000         CONSTANT HEAD =           0.0000
       RIVER LEAKAGE =    76256192.0000         RIVER LEAKAGE =     1469805.1250
            RECHARGE =        1010.0571              RECHARGE =       3.7006E-02

            TOTAL IN =   101722104.0000              TOTAL IN =     2404007.5000

          OUT:                                     OUT:
          ----                                     ----
             STORAGE =   101694008.0000               STORAGE =     2401357.5000
       CONSTANT HEAD =           0.0000         CONSTANT HEAD =           0.0000
       RIVER LEAKAGE =       41896.5469         RIVER LEAKAGE =        2952.3208
            RECHARGE =           0.0000              RECHARGE =           0.0000

           TOTAL OUT =   101735904.0000             TOTAL OUT =     2404309.7500

            IN - OUT =      -13800.0000              IN - OUT =        -302.2500

 PERCENT DISCREPANCY =          -0.01     PERCENT DISCREPANCY =          -0.01






         TIME SUMMARY AT END OF TIME STEP   27 IN STRESS PERIOD    1
                    SECONDS     MINUTES      HOURS       DAYS        YEARS
                    -----------------------------------------------------------
   TIME STEP LENGTH  86400.      1440.0      24.000      1.0000     2.73785E-03
 STRESS PERIOD TIME 2.33280E+06  38880.      648.00      27.000     7.39220E-02
         TOTAL TIME 2.33280E+06  38880.      648.00      27.000     7.39220E-02
1
 
 SOLVING FOR HEAD 
                                                   Max.-Head-Change                        Max.-Flux-Residual
  Residual-Control   Outer-Iter.   Inner-Iter.     Column Row Layer    Max.-Head-Change    Column Row Layer    Max.-Flux-Residual            L2-New               L2-Old           Solver-Max-Delh
          0                 1           2            40   51     1       0.1531420566E+01      34   89    1       0.3416357631E+06      0.4543186472E+06      0.1147809099E+03      0.1531420566E+01
          0                 2           2            34   89     1       0.3483842009E+02      34   89    1       0.2304160576E+05      0.3778736999E+05      0.4543186472E+06      0.3483842009E+02
          1                 2           0            34   89     1       0.2438689365E+02      34   89    1      -0.4247939109E+07      0.4247940766E+07      0.3778736999E+05      0.3483842009E+02
          2                 2           0            34   89     1       0.1707082526E+02      34   89    1      -0.2964007308E+07      0.2964024696E+07      0.4247940766E+07      0.3483842009E+02
          3                 2           0            34   89     1       0.1194957748E+02      34   89    1      -0.2065255062E+07      0.2065317083E+07      0.2964024696E+07      0.3483842009E+02
          4                 2           0            34   89     1       0.8364704093E+01      34   89    1      -0.1436882944E+07      0.1437024740E+07      0.2065317083E+07      0.3483842009E+02
          5                 2           0            34   89     1       0.5855292766E+01      34   89    1      -0.9973361275E+06      0.9976039710E+06      0.1437024740E+07      0.3483842009E+02
          6                 2           0            34   89     1       0.4098704866E+01      34   89    1      -0.6896533675E+06      0.6901123693E+06      0.9976039710E+06      0.3483842009E+02
          7                 2           0            34   89     1       0.2869093357E+01      34   89    1      -0.4742754421E+06      0.4750208421E+06      0.6901123693E+06      0.3483842009E+02
          8                 2           0            34   89     1       0.2008365316E+01      34   89    1      -0.3235108983E+06      0.3246865583E+06      0.4750208421E+06      0.3483842009E+02
                                                   Max.-Head-Change                        Max.-Flux-Residual
  Residual-Control   Outer-Iter.   Inner-Iter.     Column Row Layer    Max.-Head-Change    Column Row Layer    Max.-Flux-Residual            L2-New               L2-Old           Solver-Max-Delh
          9                 2           0            34   89     1       0.1405855697E+01      34   89    1      -0.2179757201E+06      0.2198062634E+06      0.3246865583E+06      0.3483842009E+02
         10                 2           0            34   89     1       0.9840989713E+00      34   89    1      -0.1441010970E+06      0.1469510697E+06      0.2198062634E+06      0.3483842009E+02
         11                 2           0            34   89     1       0.6888692682E+00      34   89    1      -0.9238886190E+05      0.9687703118E+05      0.1469510697E+06      0.3483842009E+02
         12                 2           0            34   89     1       0.4822084795E+00      34   89    1      -0.5619029800E+05      0.6341076337E+05      0.9687703118E+05      0.3483842009E+02
         13                 2           0            34   89     1       0.3375459299E+00      34   89    1      -0.3085130375E+05      0.4272388171E+05      0.6341076337E+05      0.3483842009E+02
          0                 3           2            36   83     1       0.1486994198E+00      38   72    1      -0.1532642716E+05      0.3244232608E+05      0.4272388171E+05      0.1486994198E+00
          0                 4           2            36   83     1       0.1481940624E+00      38   72    1      -0.7661708382E+03      0.1621951167E+04      0.3244232608E+05      0.1481940624E+00

    ------------------------------------------------
       NWT REQUIRED            4 OUTER ITERATIONS 
       AND A TOTAL OF          8 INNER ITERATIONS.
    ------------------------------------------------

 OUTPUT CONTROL FOR STRESS PERIOD    1   TIME STEP   28
    SAVE HEAD FOR ALL LAYERS
    SAVE DRAWDOWN FOR ALL LAYERS
    SAVE BUDGET
    PRINT BUDGET
 UBDSV1 SAVING "         STORAGE" ON UNIT   9 AT TIME STEP 28, STRESS PERIOD   1
 UBDSV2 SAVING "   CONSTANT HEAD" ON UNIT   9 AT TIME STEP 28, STRESS PERIOD   1
 UBDSV1 SAVING "FLOW RIGHT FACE " ON UNIT   9 AT TIME STEP 28, STRESS PERIOD   1
 UBDSV1 SAVING "FLOW FRONT FACE " ON UNIT   9 AT TIME STEP 28, STRESS PERIOD   1
 UBDSV4 SAVING "   RIVER LEAKAGE" ON UNIT   9 AT TIME STEP 28, STRESS PERIOD   1
 UBDSV3 SAVING "        RECHARGE" ON UNIT   9 AT TIME STEP 28, STRESS PERIOD   1

 HEAD WILL BE SAVED ON UNIT   37 AT END OF TIME STEP   28, STRESS PERIOD    1

 DRAWDOWN WILL BE SAVED ON UNIT   38 AT END OF TIME STEP   28, STRESS PERIOD    1
1
  VOLUMETRIC BUDGET FOR ENTIRE MODEL AT END OF TIME STEP   28, STRESS PERIOD   1
  ------------------------------------------------------------------------------

     CUMULATIVE VOLUMES      L**3       RATES FOR THIS TIME STEP      L**3/T
     ------------------                 ------------------------

           IN:                                      IN:
           ---                                      ---
             STORAGE =    26398472.0000               STORAGE =      933567.4375
       CONSTANT HEAD =           0.0000         CONSTANT HEAD =           0.0000
       RIVER LEAKAGE =    77636584.0000         RIVER LEAKAGE =     1380393.8750
            RECHARGE =        1010.0859              RECHARGE =       2.8897E-02

            TOTAL IN =   104036064.0000              TOTAL IN =     2313961.2500

          OUT:                                     OUT:
          ----                                     ----
             STORAGE =   104005264.0000               STORAGE =     2311255.5000
       CONSTANT HEAD =           0.0000         CONSTANT HEAD =           0.0000
       RIVER LEAKAGE =       44848.4609         RIVER LEAKAGE =        2951.9148
            RECHARGE =           0.0000              RECHARGE =           0.0000

           TOTAL OUT =   104050112.0000             TOTAL OUT =     2314207.5000

            IN - OUT =      -14048.0000              IN - OUT =        -246.2500

 PERCENT DISCREPANCY =          -0.01     PERCENT DISCREPANCY =          -0.01






         TIME SUMMARY AT END OF TIME STEP   28 IN STRESS PERIOD    1
                    SECONDS     MINUTES      HOURS       DAYS        YEARS
                    -----------------------------------------------------------
   TIME STEP LENGTH  86400.      1440.0      24.000      1.0000     2.73785E-03
 STRESS PERIOD TIME 2.41920E+06  40320.      672.00      28.000     7.66598E-02
         TOTAL TIME 2.41920E+06  40320.      672.00      28.000     7.66598E-02
1
 
 SOLVING FOR HEAD 
                                                   Max.-Head-Change                        Max.-Flux-Residual
  Residual-Control   Outer-Iter.   Inner-Iter.     Column Row Layer    Max.-Head-Change    Column Row Layer    Max.-Flux-Residual            L2-New               L2-Old           Solver-Max-Delh
          0                 1           2            34   89     1       0.2857165653E+01      34   89    1       0.3184710419E+06      0.4319616777E+06      0.8302595307E+02      0.2857165653E+01
          0                 2           2            38   72     1       0.1755861006E+03      38   72    1       0.7877140464E+05      0.8849780784E+05      0.4319616777E+06      0.1755861006E+03
          1                 2           0            38   72     1       0.1229102683E+03      38   72    1      -0.1045559212E+08      0.1045559583E+08      0.8849780784E+05      0.1755861006E+03
          2                 2           0            38   72     1       0.8603718634E+02      38   72    1      -0.7294105714E+07      0.7294120089E+07      0.1045559583E+08      0.1755861006E+03
          3                 2           0            38   72     1       0.6022602942E+02      38   72    1      -0.5081065265E+07      0.5081111814E+07      0.7294120089E+07      0.1755861006E+03
          4                 2           0            38   72     1       0.4215821987E+02      38   72    1      -0.3531936978E+07      0.3532041884E+07      0.5081111814E+07      0.1755861006E+03
          5                 2           0            38   72     1       0.2951075341E+02      38   72    1      -0.2447850841E+07      0.2448048864E+07      0.3532041884E+07      0.1755861006E+03
          6                 2           0            38   72     1       0.2065752703E+02      38   72    1      -0.1689759982E+07      0.1690099911E+07      0.2448048864E+07      0.1755861006E+03
          7                 2           0            38   72     1       0.1446026868E+02      38   72    1      -0.1159096522E+07      0.1159650091E+07      0.1690099911E+07      0.1755861006E+03
          8                 2           0            38   72     1       0.1012218790E+02      38   72    1      -0.7876321710E+06      0.7885091935E+06      0.1159650091E+07      0.1755861006E+03
                                                   Max.-Head-Change                        Max.-Flux-Residual
  Residual-Control   Outer-Iter.   Inner-Iter.     Column Row Layer    Max.-Head-Change    Column Row Layer    Max.-Flux-Residual            L2-New               L2-Old           Solver-Max-Delh
          9                 2           0            38   72     1       0.7085531411E+01      38   72    1      -0.5276071614E+06      0.5289829081E+06      0.7885091935E+06      0.1755861006E+03
         10                 2           0            38   72     1       0.4959871903E+01      38   72    1      -0.3455896733E+06      0.3477596781E+06      0.5289829081E+06      0.1755861006E+03
         11                 2           0            38   72     1       0.3471910273E+01      38   72    1      -0.2181774414E+06      0.2216803352E+06      0.3477596781E+06      0.1755861006E+03
         12                 2           0            38   72     1       0.2430337150E+01      38   72    1      -0.1289888843E+06      0.1349240770E+06      0.2216803352E+06      0.1755861006E+03
          0                 3           2            38   72     1      -0.1054874188E+01      38   72    1      -0.6655689719E+05      0.7755153177E+05      0.1349240770E+06     -0.1054874188E+01
          0                 4           2            36   83     1       0.1518238080E+00      38   72    1      -0.3327843532E+04      0.3877420657E+04      0.7755153177E+05      0.1518238080E+00

    ------------------------------------------------
       NWT REQUIRED            4 OUTER ITERATIONS 
       AND A TOTAL OF          8 INNER ITERATIONS.
    ------------------------------------------------

 OUTPUT CONTROL FOR STRESS PERIOD    1   TIME STEP   29
    SAVE HEAD FOR ALL LAYERS
    SAVE DRAWDOWN FOR ALL LAYERS
    SAVE BUDGET
    PRINT BUDGET
 UBDSV1 SAVING "         STORAGE" ON UNIT   9 AT TIME STEP 29, STRESS PERIOD   1
 UBDSV2 SAVING "   CONSTANT HEAD" ON UNIT   9 AT TIME STEP 29, STRESS PERIOD   1
 UBDSV1 SAVING "FLOW RIGHT FACE " ON UNIT   9 AT TIME STEP 29, STRESS PERIOD   1
 UBDSV1 SAVING "FLOW FRONT FACE " ON UNIT   9 AT TIME STEP 29, STRESS PERIOD   1
 UBDSV4 SAVING "   RIVER LEAKAGE" ON UNIT   9 AT TIME STEP 29, STRESS PERIOD   1
 UBDSV3 SAVING "        RECHARGE" ON UNIT   9 AT TIME STEP 29, STRESS PERIOD   1

 HEAD WILL BE SAVED ON UNIT   37 AT END OF TIME STEP   29, STRESS PERIOD    1

 DRAWDOWN WILL BE SAVED ON UNIT   38 AT END OF TIME STEP   29, STRESS PERIOD    1
1
  VOLUMETRIC BUDGET FOR ENTIRE MODEL AT END OF TIME STEP   29, STRESS PERIOD   1
  ------------------------------------------------------------------------------

     CUMULATIVE VOLUMES      L**3       RATES FOR THIS TIME STEP      L**3/T
     ------------------                 ------------------------

           IN:                                      IN:
           ---                                      ---
             STORAGE =    27331362.0000               STORAGE =      932889.2500
       CONSTANT HEAD =           0.0000         CONSTANT HEAD =           0.0000
       RIVER LEAKAGE =    78621784.0000         RIVER LEAKAGE =      985201.3125
            RECHARGE =        1010.1085              RECHARGE =       2.2609E-02

            TOTAL IN =   105954152.0000              TOTAL IN =     1918090.5000

          OUT:                                     OUT:
          ----                                     ----
             STORAGE =   105920808.0000               STORAGE =     1915541.3750
       CONSTANT HEAD =           0.0000         CONSTANT HEAD =           0.0000
       RIVER LEAKAGE =       47799.9688         RIVER LEAKAGE =        2951.5095
            RECHARGE =           0.0000              RECHARGE =           0.0000

           TOTAL OUT =   105968608.0000             TOTAL OUT =     1918492.8750

            IN - OUT =      -14456.0000              IN - OUT =        -402.3750

 PERCENT DISCREPANCY =          -0.01     PERCENT DISCREPANCY =          -0.02






         TIME SUMMARY AT END OF TIME STEP   29 IN STRESS PERIOD    1
                    SECONDS     MINUTES      HOURS       DAYS        YEARS
                    -----------------------------------------------------------
   TIME STEP LENGTH  86400.      1440.0      24.000      1.0000     2.73785E-03
 STRESS PERIOD TIME 2.50560E+06  41760.      696.00      29.000     7.93977E-02
         TOTAL TIME 2.50560E+06  41760.      696.00      29.000     7.93977E-02
1
 
 SOLVING FOR HEAD 
                                                   Max.-Head-Change                        Max.-Flux-Residual
  Residual-Control   Outer-Iter.   Inner-Iter.     Column Row Layer    Max.-Head-Change    Column Row Layer    Max.-Flux-Residual            L2-New               L2-Old           Solver-Max-Delh
          0                 1           2            38   72     1       0.1393407664E+01      31  111    1       0.1465931523E+06      0.2588303984E+06      0.1947003784E+03      0.1393407664E+01
          0                 2           2            36   83     1       0.1558763923E+00      31  111    1      -0.1465970451E+05      0.2588400696E+05      0.2588303984E+06      0.1558763923E+00
          0                 3           2            36   83     1       0.1553091119E+00      31  111    1      -0.7329877564E+03      0.1294345387E+04      0.2588400696E+05      0.1553091119E+00

    ------------------------------------------------
       NWT REQUIRED            3 OUTER ITERATIONS 
       AND A TOTAL OF          6 INNER ITERATIONS.
    ------------------------------------------------

 OUTPUT CONTROL FOR STRESS PERIOD    1   TIME STEP   30
    SAVE HEAD FOR ALL LAYERS
    SAVE DRAWDOWN FOR ALL LAYERS
    SAVE BUDGET
    PRINT BUDGET
 UBDSV1 SAVING "         STORAGE" ON UNIT   9 AT TIME STEP 30, STRESS PERIOD   1
 UBDSV2 SAVING "   CONSTANT HEAD" ON UNIT   9 AT TIME STEP 30, STRESS PERIOD   1
 UBDSV1 SAVING "FLOW RIGHT FACE " ON UNIT   9 AT TIME STEP 30, STRESS PERIOD   1
 UBDSV1 SAVING "FLOW FRONT FACE " ON UNIT   9 AT TIME STEP 30, STRESS PERIOD   1
 UBDSV4 SAVING "   RIVER LEAKAGE" ON UNIT   9 AT TIME STEP 30, STRESS PERIOD   1
 UBDSV3 SAVING "        RECHARGE" ON UNIT   9 AT TIME STEP 30, STRESS PERIOD   1

 HEAD WILL BE SAVED ON UNIT   37 AT END OF TIME STEP   30, STRESS PERIOD    1

 DRAWDOWN WILL BE SAVED ON UNIT   38 AT END OF TIME STEP   30, STRESS PERIOD    1
1
  VOLUMETRIC BUDGET FOR ENTIRE MODEL AT END OF TIME STEP   30, STRESS PERIOD   1
  ------------------------------------------------------------------------------

     CUMULATIVE VOLUMES      L**3       RATES FOR THIS TIME STEP      L**3/T
     ------------------                 ------------------------

           IN:                                      IN:
           ---                                      ---
             STORAGE =    28263638.0000               STORAGE =      932276.5625
       CONSTANT HEAD =           0.0000         CONSTANT HEAD =           0.0000
       RIVER LEAKAGE =    79532880.0000         RIVER LEAKAGE =      911095.6875
            RECHARGE =        1010.1262              RECHARGE =       1.7721E-02

            TOTAL IN =   107797528.0000              TOTAL IN =     1843372.2500

          OUT:                                     OUT:
          ----                                     ----
             STORAGE =   107759432.0000               STORAGE =     1838626.2500
       CONSTANT HEAD =           0.0000         CONSTANT HEAD =           0.0000
       RIVER LEAKAGE =       52722.4453         RIVER LEAKAGE =        4922.4785
            RECHARGE =           0.0000              RECHARGE =           0.0000

           TOTAL OUT =   107812152.0000             TOTAL OUT =     1843548.7500

            IN - OUT =      -14624.0000              IN - OUT =        -176.5000

 PERCENT DISCREPANCY =          -0.01     PERCENT DISCREPANCY =          -0.01






         TIME SUMMARY AT END OF TIME STEP   30 IN STRESS PERIOD    1
                    SECONDS     MINUTES      HOURS       DAYS        YEARS
                    -----------------------------------------------------------
   TIME STEP LENGTH  86400.      1440.0      24.000      1.0000     2.73785E-03
 STRESS PERIOD TIME 2.59200E+06  43200.      720.00      30.000     8.21355E-02
         TOTAL TIME 2.59200E+06  43200.      720.00      30.000     8.21355E-02
1
 
 SOLVING FOR HEAD 
                                                   Max.-Head-Change                        Max.-Flux-Residual
  Residual-Control   Outer-Iter.   Inner-Iter.     Column Row Layer    Max.-Head-Change    Column Row Layer    Max.-Flux-Residual            L2-New               L2-Old           Solver-Max-Delh
          0                 1           2            41   66     1       0.4952458479E+00      31  111    1       0.1465585174E+06      0.2473451161E+06      0.6740829325E+02      0.4952458479E+00
          0                 2           2            36   83     1       0.1592394531E+00      31  111    1      -0.1465624085E+05      0.2473551529E+05      0.2473451161E+06      0.1592394531E+00
          0                 3           2            36   83     1       0.1586407740E+00      31  111    1      -0.7328145718E+03      0.1236934818E+04      0.2473551529E+05      0.1586407740E+00

    ------------------------------------------------
       NWT REQUIRED            3 OUTER ITERATIONS 
       AND A TOTAL OF          6 INNER ITERATIONS.
    ------------------------------------------------

 OUTPUT CONTROL FOR STRESS PERIOD    1   TIME STEP   31
    SAVE HEAD FOR ALL LAYERS
    SAVE DRAWDOWN FOR ALL LAYERS
    SAVE BUDGET
    PRINT BUDGET
 UBDSV1 SAVING "         STORAGE" ON UNIT   9 AT TIME STEP 31, STRESS PERIOD   1
 UBDSV2 SAVING "   CONSTANT HEAD" ON UNIT   9 AT TIME STEP 31, STRESS PERIOD   1
 UBDSV1 SAVING "FLOW RIGHT FACE " ON UNIT   9 AT TIME STEP 31, STRESS PERIOD   1
 UBDSV1 SAVING "FLOW FRONT FACE " ON UNIT   9 AT TIME STEP 31, STRESS PERIOD   1
 UBDSV4 SAVING "   RIVER LEAKAGE" ON UNIT   9 AT TIME STEP 31, STRESS PERIOD   1
 UBDSV3 SAVING "        RECHARGE" ON UNIT   9 AT TIME STEP 31, STRESS PERIOD   1

 HEAD WILL BE SAVED ON UNIT   37 AT END OF TIME STEP   31, STRESS PERIOD    1

 DRAWDOWN WILL BE SAVED ON UNIT   38 AT END OF TIME STEP   31, STRESS PERIOD    1
1
  VOLUMETRIC BUDGET FOR ENTIRE MODEL AT END OF TIME STEP   31, STRESS PERIOD   1
  ------------------------------------------------------------------------------

     CUMULATIVE VOLUMES      L**3       RATES FOR THIS TIME STEP      L**3/T
     ------------------                 ------------------------

           IN:                                      IN:
           ---                                      ---
             STORAGE =    29195300.0000               STORAGE =      931661.3750
       CONSTANT HEAD =           0.0000         CONSTANT HEAD =           0.0000
       RIVER LEAKAGE =    80443968.0000         RIVER LEAKAGE =      911090.3125
            RECHARGE =        1010.1401              RECHARGE =       1.3912E-02

            TOTAL IN =   109640272.0000              TOTAL IN =     1842751.7500

          OUT:                                     OUT:
          ----                                     ----
             STORAGE =   109597144.0000               STORAGE =     1837714.8750
       CONSTANT HEAD =           0.0000         CONSTANT HEAD =           0.0000
       RIVER LEAKAGE =       57914.9023         RIVER LEAKAGE =        5192.4585
            RECHARGE =           0.0000              RECHARGE =           0.0000

           TOTAL OUT =   109655056.0000             TOTAL OUT =     1842907.3750

            IN - OUT =      -14784.0000              IN - OUT =        -155.6250

 PERCENT DISCREPANCY =          -0.01     PERCENT DISCREPANCY =          -0.01






         TIME SUMMARY AT END OF TIME STEP   31 IN STRESS PERIOD    1
                    SECONDS     MINUTES      HOURS       DAYS        YEARS
                    -----------------------------------------------------------
   TIME STEP LENGTH  86400.      1440.0      24.000      1.0000     2.73785E-03
 STRESS PERIOD TIME 2.67840E+06  44640.      744.00      31.000     8.48734E-02
         TOTAL TIME 2.67840E+06  44640.      744.00      31.000     8.48734E-02
1
 
 SOLVING FOR HEAD 
                                                   Max.-Head-Change                        Max.-Flux-Residual
  Residual-Control   Outer-Iter.   Inner-Iter.     Column Row Layer    Max.-Head-Change    Column Row Layer    Max.-Flux-Residual            L2-New               L2-Old           Solver-Max-Delh
          0                 1           2            41   66     1       0.4952068118E+00      31  111    1       0.1465236657E+06      0.2472396945E+06      0.6479674917E+02      0.4952068118E+00
          0                 2           2            36   83     1       0.1624473180E+00      31  111    1      -0.1465275549E+05      0.2472497326E+05      0.2472396945E+06      0.1624473180E+00
          0                 3           2            36   83     1       0.1618170457E+00      36   38    1      -0.3378214666E+04      0.3597367687E+04      0.2472497326E+05      0.1618170457E+00

    ------------------------------------------------
       NWT REQUIRED            3 OUTER ITERATIONS 
       AND A TOTAL OF          6 INNER ITERATIONS.
    ------------------------------------------------

 OUTPUT CONTROL FOR STRESS PERIOD    1   TIME STEP   32
    SAVE HEAD FOR ALL LAYERS
    SAVE DRAWDOWN FOR ALL LAYERS
    SAVE BUDGET
    PRINT BUDGET
 UBDSV1 SAVING "         STORAGE" ON UNIT   9 AT TIME STEP 32, STRESS PERIOD   1
 UBDSV2 SAVING "   CONSTANT HEAD" ON UNIT   9 AT TIME STEP 32, STRESS PERIOD   1
 UBDSV1 SAVING "FLOW RIGHT FACE " ON UNIT   9 AT TIME STEP 32, STRESS PERIOD   1
 UBDSV1 SAVING "FLOW FRONT FACE " ON UNIT   9 AT TIME STEP 32, STRESS PERIOD   1
 UBDSV4 SAVING "   RIVER LEAKAGE" ON UNIT   9 AT TIME STEP 32, STRESS PERIOD   1
 UBDSV3 SAVING "        RECHARGE" ON UNIT   9 AT TIME STEP 32, STRESS PERIOD   1

 HEAD WILL BE SAVED ON UNIT   37 AT END OF TIME STEP   32, STRESS PERIOD    1

 DRAWDOWN WILL BE SAVED ON UNIT   38 AT END OF TIME STEP   32, STRESS PERIOD    1
1
  VOLUMETRIC BUDGET FOR ENTIRE MODEL AT END OF TIME STEP   32, STRESS PERIOD   1
  ------------------------------------------------------------------------------

     CUMULATIVE VOLUMES      L**3       RATES FOR THIS TIME STEP      L**3/T
     ------------------                 ------------------------

           IN:                                      IN:
           ---                                      ---
             STORAGE =    30126346.0000               STORAGE =      931046.8125
       CONSTANT HEAD =           0.0000         CONSTANT HEAD =           0.0000
       RIVER LEAKAGE =    81355056.0000         RIVER LEAKAGE =      911086.6875
            RECHARGE =        1010.1511              RECHARGE =       1.0937E-02

            TOTAL IN =   111482408.0000              TOTAL IN =     1842133.5000

          OUT:                                     OUT:
          ----                                     ----
             STORAGE =   111434408.0000               STORAGE =     1837262.2500
       CONSTANT HEAD =           0.0000         CONSTANT HEAD =           0.0000
       RIVER LEAKAGE =       63110.2109         RIVER LEAKAGE =        5195.3096
            RECHARGE =           0.0000              RECHARGE =           0.0000

           TOTAL OUT =   111497520.0000             TOTAL OUT =     1842457.5000

            IN - OUT =      -15112.0000              IN - OUT =        -324.0000

 PERCENT DISCREPANCY =          -0.01     PERCENT DISCREPANCY =          -0.02






         TIME SUMMARY AT END OF TIME STEP   32 IN STRESS PERIOD    1
                    SECONDS     MINUTES      HOURS       DAYS        YEARS
                    -----------------------------------------------------------
   TIME STEP LENGTH  86400.      1440.0      24.000      1.0000     2.73785E-03
 STRESS PERIOD TIME 2.76480E+06  46080.      768.00      32.000     8.76112E-02
         TOTAL TIME 2.76480E+06  46080.      768.00      32.000     8.76112E-02
1
 
 SOLVING FOR HEAD 
                                                   Max.-Head-Change                        Max.-Flux-Residual
  Residual-Control   Outer-Iter.   Inner-Iter.     Column Row Layer    Max.-Head-Change    Column Row Layer    Max.-Flux-Residual            L2-New               L2-Old           Solver-Max-Delh
          0                 1           2            41   66     1       0.4951681137E+00      31  111    1       0.1464886192E+06      0.2471438635E+06      0.1809567015E+03      0.4951681137E+00
          0                 2           2            36   83     1       0.1654984367E+00      31  111    1      -0.1464925066E+05      0.2471539021E+05      0.2471438635E+06      0.1654984367E+00
          0                 3           2            36   83     1       0.1648364396E+00      31  111    1      -0.7324650598E+03      0.1235942225E+04      0.2471539021E+05      0.1648364396E+00
          1                 3           0            36   83     1       0.1153855057E+00      36   83    1      -0.1416132487E+06      0.1416132628E+06      0.1235942225E+04      0.1648364396E+00
          2                 3           0            36   83     1       0.8076985264E-01      36   83    1      -0.9216151044E+05      0.9216244120E+05      0.1416132628E+06      0.1648364396E+00
          3                 3           0            36   83     1       0.5653889588E-01      36   83    1      -0.5754532338E+05      0.5754911562E+05      0.9216244120E+05      0.1648364396E+00
          4                 3           0            36   83     1       0.3957722644E-01      36   83    1      -0.3331400710E+05      0.3332442497E+05      0.5754911562E+05      0.1648364396E+00
          5                 3           0            36   83     1       0.2770405804E-01      36   83    1      -0.1635209299E+05      0.1637989782E+05      0.3332442497E+05      0.1648364396E+00
          6                 3           0            36   83     1       0.1939284030E-01      36   83    1      -0.4478756733E+04      0.4597591727E+04      0.1637989782E+05      0.1648364396E+00
          0                 4           2            36   83     1       0.1647586760E+00      31  111    1      -0.6505991117E+03      0.1097843206E+04      0.4597591727E+04      0.1647586760E+00
                                                   Max.-Head-Change                        Max.-Flux-Residual
  Residual-Control   Outer-Iter.   Inner-Iter.     Column Row Layer    Max.-Head-Change    Column Row Layer    Max.-Flux-Residual            L2-New               L2-Old           Solver-Max-Delh
          1                 4           0            36   83     1       0.1153310713E+00      36   83    1      -0.1609286526E+06      0.1609286626E+06      0.1097843206E+04      0.1647586760E+00
          2                 4           0            36   83     1       0.8073174850E-01      36   83    1      -0.1115002248E+06      0.1115008320E+06      0.1609286626E+06      0.1647586760E+00
          3                 4           0            36   83     1       0.5651222299E-01      36   83    1      -0.7690035503E+05      0.7690259417E+05      0.1115008320E+06      0.1647586760E+00
          4                 4           0            36   83     1       0.3955855542E-01      36   83    1      -0.5268046082E+05      0.5268565938E+05      0.7690259417E+05      0.1647586760E+00
          5                 4           0            36   83     1       0.2769098832E-01      36   83    1      -0.3572654215E+05      0.3573659026E+05      0.5268565938E+05      0.1647586760E+00
          6                 4           0            36   83     1       0.1938369150E-01      36   83    1      -0.2385880270E+05      0.2387663001E+05      0.3573659026E+05      0.1647586760E+00
          7                 4           0            36   83     1       0.1356858382E-01      36   83    1      -0.1555138690E+05      0.1558192511E+05      0.2387663001E+05      0.1647586760E+00
          8                 4           0            36   83     1       0.9498008509E-02      36   83    1      -0.9736196762E+04      0.9788636562E+04      0.1558192511E+05      0.1647586760E+00
          9                 4           0            36   83     1       0.6648605843E-02      36   83    1      -0.5665564137E+04      0.5759799749E+04      0.9788636562E+04      0.1647586760E+00
         10                 4           0            36   83     1       0.4654024011E-02      36   83    1      -0.2816121546E+04      0.3007484840E+04      0.5759799749E+04      0.1647586760E+00
                                                   Max.-Head-Change                        Max.-Flux-Residual
  Residual-Control   Outer-Iter.   Inner-Iter.     Column Row Layer    Max.-Head-Change    Column Row Layer    Max.-Flux-Residual            L2-New               L2-Old           Solver-Max-Delh
         11                 4           0            36   83     1       0.3257816752E-02      36   83    1      -0.8215118618E+03      0.1347633899E+04      0.3007484840E+04      0.1647586760E+00
          0                 5           2            36   83     1       0.1647456123E+00      31  111    1      -0.6383776097E+03      0.1077227307E+04      0.1347633899E+04      0.1647456123E+00
          1                 5           0            36   83     1       0.1153219266E+00      36   83    1      -0.1641734614E+06      0.1641734707E+06      0.1077227307E+04      0.1647456123E+00
          2                 5           0            36   83     1       0.8072534727E-01      36   83    1      -0.1147489495E+06      0.1147495175E+06      0.1641734707E+06      0.1647456123E+00
          3                 5           0            36   83     1       0.5650774213E-01      36   83    1      -0.8015182092E+05      0.8015388928E+05      0.1147495175E+06      0.1647456123E+00
          4                 5           0            36   83     1       0.3955541882E-01      36   83    1      -0.5593384555E+05      0.5593855955E+05      0.8015388928E+05      0.1647456123E+00
          5                 5           0            36   83     1       0.2768879270E-01      36   83    1      -0.3898127005E+05      0.3899013673E+05      0.5593855955E+05      0.1647456123E+00
          6                 5           0            36   83     1       0.1938215456E-01      36   83    1      -0.2711447082E+05      0.2712957528E+05      0.3899013673E+05      0.1647456123E+00
          7                 5           0            36   83     1       0.1356750796E-01      36   83    1      -0.1880771318E+05      0.1883203258E+05      0.2712957528E+05      0.1647456123E+00
          8                 5           0            36   83     1       0.9497255411E-02      36   83    1      -0.1299298375E+05      0.1303086354E+05      0.1883203258E+05      0.1647456123E+00
                                                   Max.-Head-Change                        Max.-Flux-Residual
  Residual-Control   Outer-Iter.   Inner-Iter.     Column Row Layer    Max.-Head-Change    Column Row Layer    Max.-Flux-Residual            L2-New               L2-Old           Solver-Max-Delh
          9                 5           0            36   83     1       0.6648078674E-02      36   83    1      -0.8922673626E+04      0.8980574348E+04      0.1303086354E+05      0.1647456123E+00
         10                 5           0            36   83     1       0.4653654993E-02      36   83    1      -0.6073456782E+04      0.6161155094E+04      0.8980574348E+04      0.1647456123E+00
         11                 5           0            36   83     1       0.3257558440E-02      36   83    1      -0.4079005121E+04      0.4211537833E+04      0.6161155094E+04      0.1647456123E+00
         12                 5           0            36   83     1       0.2280290869E-02      36   83    1      -0.2682889031E+04      0.2883559191E+04      0.4211537833E+04      0.1647456123E+00
         13                 5           0            36   83     1       0.1596203581E-02      36   83    1      -0.1705607807E+04      0.2009722335E+04      0.2883559191E+04      0.1647456123E+00
         14                 5           0            36   83     1       0.1117342488E-02      36   83    1      -0.1021510973E+04      0.1477301748E+04      0.2009722335E+04      0.1647456123E+00
         15                 5           0            36   83     1       0.7821397281E-03      31  111    1      -0.6342643377E+03      0.1199897434E+04      0.1477301748E+04      0.1647456123E+00
          0                 6           2            36   40     1       0.1471266747E+00      31  111    1      -0.6354983194E+03      0.1092145516E+04      0.1199897434E+04      0.1471266747E+00

    ------------------------------------------------
       NWT REQUIRED            6 OUTER ITERATIONS 
       AND A TOTAL OF         12 INNER ITERATIONS.
    ------------------------------------------------

 OUTPUT CONTROL FOR STRESS PERIOD    1   TIME STEP   33
    SAVE HEAD FOR ALL LAYERS
    SAVE DRAWDOWN FOR ALL LAYERS
    SAVE BUDGET
    PRINT BUDGET
 UBDSV1 SAVING "         STORAGE" ON UNIT   9 AT TIME STEP 33, STRESS PERIOD   1
 UBDSV2 SAVING "   CONSTANT HEAD" ON UNIT   9 AT TIME STEP 33, STRESS PERIOD   1
 UBDSV1 SAVING "FLOW RIGHT FACE " ON UNIT   9 AT TIME STEP 33, STRESS PERIOD   1
 UBDSV1 SAVING "FLOW FRONT FACE " ON UNIT   9 AT TIME STEP 33, STRESS PERIOD   1
 UBDSV4 SAVING "   RIVER LEAKAGE" ON UNIT   9 AT TIME STEP 33, STRESS PERIOD   1
 UBDSV3 SAVING "        RECHARGE" ON UNIT   9 AT TIME STEP 33, STRESS PERIOD   1

 HEAD WILL BE SAVED ON UNIT   37 AT END OF TIME STEP   33, STRESS PERIOD    1

 DRAWDOWN WILL BE SAVED ON UNIT   38 AT END OF TIME STEP   33, STRESS PERIOD    1
1
  VOLUMETRIC BUDGET FOR ENTIRE MODEL AT END OF TIME STEP   33, STRESS PERIOD   1
  ------------------------------------------------------------------------------

     CUMULATIVE VOLUMES      L**3       RATES FOR THIS TIME STEP      L**3/T
     ------------------                 ------------------------

           IN:                                      IN:
           ---                                      ---
             STORAGE =    31056736.0000               STORAGE =      930390.1875
       CONSTANT HEAD =           0.0000         CONSTANT HEAD =           0.0000
       RIVER LEAKAGE =    82266448.0000         RIVER LEAKAGE =      911394.5625
            RECHARGE =        1010.1597              RECHARGE =       8.6093E-03

            TOTAL IN =   113324192.0000              TOTAL IN =     1841784.7500

          OUT:                                     OUT:
          ----                                     ----
             STORAGE =   113271152.0000               STORAGE =     1836744.7500
       CONSTANT HEAD =           0.0000         CONSTANT HEAD =           0.0000
       RIVER LEAKAGE =       68307.3906         RIVER LEAKAGE =        5197.1777
            RECHARGE =           0.0000              RECHARGE =           0.0000

           TOTAL OUT =   113339456.0000             TOTAL OUT =     1841941.8750

            IN - OUT =      -15264.0000              IN - OUT =        -157.1250

 PERCENT DISCREPANCY =          -0.01     PERCENT DISCREPANCY =          -0.01






         TIME SUMMARY AT END OF TIME STEP   33 IN STRESS PERIOD    1
                    SECONDS     MINUTES      HOURS       DAYS        YEARS
                    -----------------------------------------------------------
   TIME STEP LENGTH  86400.      1440.0      24.000      1.0000     2.73785E-03
 STRESS PERIOD TIME 2.85120E+06  47520.      792.00      33.000     9.03491E-02
         TOTAL TIME 2.85120E+06  47520.      792.00      33.000     9.03491E-02
1
 
 SOLVING FOR HEAD 
                                                   Max.-Head-Change                        Max.-Flux-Residual
  Residual-Control   Outer-Iter.   Inner-Iter.     Column Row Layer    Max.-Head-Change    Column Row Layer    Max.-Flux-Residual            L2-New               L2-Old           Solver-Max-Delh
          0                 1           2            41   66     1       0.4951289653E+00      31  111    1       0.1464533804E+06      0.2470382723E+06      0.5838343343E+02      0.4951289653E+00
          0                 2           2            36   40     1       0.1509669678E+00      31  111    1      -0.1464572660E+05      0.2509270906E+05      0.2470382723E+06      0.1509669678E+00
          0                 3           2            36   40     1       0.1505621162E+00      31  111    1      -0.7322888555E+03      0.1254721835E+04      0.2509270906E+05      0.1505621162E+00

    ------------------------------------------------
       NWT REQUIRED            3 OUTER ITERATIONS 
       AND A TOTAL OF          6 INNER ITERATIONS.
    ------------------------------------------------

 OUTPUT CONTROL FOR STRESS PERIOD    1   TIME STEP   34
    SAVE HEAD FOR ALL LAYERS
    SAVE DRAWDOWN FOR ALL LAYERS
    SAVE BUDGET
    PRINT BUDGET
 UBDSV1 SAVING "         STORAGE" ON UNIT   9 AT TIME STEP 34, STRESS PERIOD   1
 UBDSV2 SAVING "   CONSTANT HEAD" ON UNIT   9 AT TIME STEP 34, STRESS PERIOD   1
 UBDSV1 SAVING "FLOW RIGHT FACE " ON UNIT   9 AT TIME STEP 34, STRESS PERIOD   1
 UBDSV1 SAVING "FLOW FRONT FACE " ON UNIT   9 AT TIME STEP 34, STRESS PERIOD   1
 UBDSV4 SAVING "   RIVER LEAKAGE" ON UNIT   9 AT TIME STEP 34, STRESS PERIOD   1
 UBDSV3 SAVING "        RECHARGE" ON UNIT   9 AT TIME STEP 34, STRESS PERIOD   1

 HEAD WILL BE SAVED ON UNIT   37 AT END OF TIME STEP   34, STRESS PERIOD    1

 DRAWDOWN WILL BE SAVED ON UNIT   38 AT END OF TIME STEP   34, STRESS PERIOD    1
1
  VOLUMETRIC BUDGET FOR ENTIRE MODEL AT END OF TIME STEP   34, STRESS PERIOD   1
  ------------------------------------------------------------------------------

     CUMULATIVE VOLUMES      L**3       RATES FOR THIS TIME STEP      L**3/T
     ------------------                 ------------------------

           IN:                                      IN:
           ---                                      ---
             STORAGE =    31986544.0000               STORAGE =      929807.7500
       CONSTANT HEAD =           0.0000         CONSTANT HEAD =           0.0000
       RIVER LEAKAGE =    83177840.0000         RIVER LEAKAGE =      911391.0000
            RECHARGE =        1010.1664              RECHARGE =       6.7851E-03

            TOTAL IN =   115165392.0000              TOTAL IN =     1841198.7500

          OUT:                                     OUT:
          ----                                     ----
             STORAGE =   115107576.0000               STORAGE =     1836424.3750
       CONSTANT HEAD =           0.0000         CONSTANT HEAD =           0.0000
       RIVER LEAKAGE =       73506.4375         RIVER LEAKAGE =        5199.0464
            RECHARGE =           0.0000              RECHARGE =           0.0000

           TOTAL OUT =   115181080.0000             TOTAL OUT =     1841623.3750

            IN - OUT =      -15688.0000              IN - OUT =        -424.6250

 PERCENT DISCREPANCY =          -0.01     PERCENT DISCREPANCY =          -0.02






         TIME SUMMARY AT END OF TIME STEP   34 IN STRESS PERIOD    1
                    SECONDS     MINUTES      HOURS       DAYS        YEARS
                    -----------------------------------------------------------
   TIME STEP LENGTH  86400.      1440.0      24.000      1.0000     2.73785E-03
 STRESS PERIOD TIME 2.93760E+06  48960.      816.00      34.000     9.30869E-02
         TOTAL TIME 2.93760E+06  48960.      816.00      34.000     9.30869E-02
1
 
 SOLVING FOR HEAD 
                                                   Max.-Head-Change                        Max.-Flux-Residual
  Residual-Control   Outer-Iter.   Inner-Iter.     Column Row Layer    Max.-Head-Change    Column Row Layer    Max.-Flux-Residual            L2-New               L2-Old           Solver-Max-Delh
          0                 1           2            41   66     1       0.4950897225E+00      31  111    1       0.1464179230E+06      0.2469325276E+06      0.2536880738E+03      0.4950897225E+00
          0                 2           2            41   66     1       0.1461892042E+01      16  126    1      -0.3999116644E+05      0.5245629433E+05      0.2469325276E+06      0.1461892042E+01
          0                 3           2            36   40     1       0.1539093302E+00      41   66    1      -0.2372571338E+04      0.3331858619E+04      0.5245629433E+05      0.1539093302E+00
          0                 4           2            36   40     1       0.1534834323E+00      51   30    1      -0.6836831823E+03      0.7038140183E+03      0.3331858619E+04      0.1534834323E+00

    ------------------------------------------------
       NWT REQUIRED            4 OUTER ITERATIONS 
       AND A TOTAL OF          8 INNER ITERATIONS.
    ------------------------------------------------

 OUTPUT CONTROL FOR STRESS PERIOD    1   TIME STEP   35
    SAVE HEAD FOR ALL LAYERS
    SAVE DRAWDOWN FOR ALL LAYERS
    SAVE BUDGET
    PRINT BUDGET
 UBDSV1 SAVING "         STORAGE" ON UNIT   9 AT TIME STEP 35, STRESS PERIOD   1
 UBDSV2 SAVING "   CONSTANT HEAD" ON UNIT   9 AT TIME STEP 35, STRESS PERIOD   1
 UBDSV1 SAVING "FLOW RIGHT FACE " ON UNIT   9 AT TIME STEP 35, STRESS PERIOD   1
 UBDSV1 SAVING "FLOW FRONT FACE " ON UNIT   9 AT TIME STEP 35, STRESS PERIOD   1
 UBDSV4 SAVING "   RIVER LEAKAGE" ON UNIT   9 AT TIME STEP 35, STRESS PERIOD   1
 UBDSV3 SAVING "        RECHARGE" ON UNIT   9 AT TIME STEP 35, STRESS PERIOD   1

 HEAD WILL BE SAVED ON UNIT   37 AT END OF TIME STEP   35, STRESS PERIOD    1

 DRAWDOWN WILL BE SAVED ON UNIT   38 AT END OF TIME STEP   35, STRESS PERIOD    1
1
  VOLUMETRIC BUDGET FOR ENTIRE MODEL AT END OF TIME STEP   35, STRESS PERIOD   1
  ------------------------------------------------------------------------------

     CUMULATIVE VOLUMES      L**3       RATES FOR THIS TIME STEP      L**3/T
     ------------------                 ------------------------

           IN:                                      IN:
           ---                                      ---
             STORAGE =    32915518.0000               STORAGE =      928974.4375
       CONSTANT HEAD =           0.0000         CONSTANT HEAD =           0.0000
       RIVER LEAKAGE =    84061792.0000         RIVER LEAKAGE =      883948.6250
            RECHARGE =        1010.1718              RECHARGE =       5.3531E-03

            TOTAL IN =   116978320.0000              TOTAL IN =     1812923.0000

          OUT:                                     OUT:
          ----                                     ----
             STORAGE =   116915304.0000               STORAGE =     1807727.2500
       CONSTANT HEAD =           0.0000         CONSTANT HEAD =           0.0000
       RIVER LEAKAGE =       78707.3828         RIVER LEAKAGE =        5200.9429
            RECHARGE =           0.0000              RECHARGE =           0.0000

           TOTAL OUT =   116994008.0000             TOTAL OUT =     1812928.2500

            IN - OUT =      -15688.0000              IN - OUT =          -5.2500

 PERCENT DISCREPANCY =          -0.01     PERCENT DISCREPANCY =          -0.00






         TIME SUMMARY AT END OF TIME STEP   35 IN STRESS PERIOD    1
                    SECONDS     MINUTES      HOURS       DAYS        YEARS
                    -----------------------------------------------------------
   TIME STEP LENGTH  86400.      1440.0      24.000      1.0000     2.73785E-03
 STRESS PERIOD TIME 3.02400E+06  50400.      840.00      35.000     9.58248E-02
         TOTAL TIME 3.02400E+06  50400.      840.00      35.000     9.58248E-02
1
 
 SOLVING FOR HEAD 
                                                   Max.-Head-Change                        Max.-Flux-Residual
  Residual-Control   Outer-Iter.   Inner-Iter.     Column Row Layer    Max.-Head-Change    Column Row Layer    Max.-Flux-Residual            L2-New               L2-Old           Solver-Max-Delh
          0                 1           2            41   66     1       0.1087031184E+01      31  111    1       0.1463822866E+06      0.2433154025E+06      0.3855981371E+02      0.1087031184E+01
          0                 2           2            36   40     1       0.1571800265E+00      31  111    1      -0.1463861685E+05      0.2433209959E+05      0.2433154025E+06      0.1571800265E+00
          0                 3           2            36   40     1       0.1567337702E+00      31  111    1      -0.7319333653E+03      0.1216687436E+04      0.2433209959E+05      0.1567337702E+00

    ------------------------------------------------
       NWT REQUIRED            3 OUTER ITERATIONS 
       AND A TOTAL OF          6 INNER ITERATIONS.
    ------------------------------------------------

 OUTPUT CONTROL FOR STRESS PERIOD    1   TIME STEP   36
    SAVE HEAD FOR ALL LAYERS
    SAVE DRAWDOWN FOR ALL LAYERS
    SAVE BUDGET
    PRINT BUDGET
 UBDSV1 SAVING "         STORAGE" ON UNIT   9 AT TIME STEP 36, STRESS PERIOD   1
 UBDSV2 SAVING "   CONSTANT HEAD" ON UNIT   9 AT TIME STEP 36, STRESS PERIOD   1
 UBDSV1 SAVING "FLOW RIGHT FACE " ON UNIT   9 AT TIME STEP 36, STRESS PERIOD   1
 UBDSV1 SAVING "FLOW FRONT FACE " ON UNIT   9 AT TIME STEP 36, STRESS PERIOD   1
 UBDSV4 SAVING "   RIVER LEAKAGE" ON UNIT   9 AT TIME STEP 36, STRESS PERIOD   1
 UBDSV3 SAVING "        RECHARGE" ON UNIT   9 AT TIME STEP 36, STRESS PERIOD   1

 HEAD WILL BE SAVED ON UNIT   37 AT END OF TIME STEP   36, STRESS PERIOD    1

 DRAWDOWN WILL BE SAVED ON UNIT   38 AT END OF TIME STEP   36, STRESS PERIOD    1
1
  VOLUMETRIC BUDGET FOR ENTIRE MODEL AT END OF TIME STEP   36, STRESS PERIOD   1
  ------------------------------------------------------------------------------

     CUMULATIVE VOLUMES      L**3       RATES FOR THIS TIME STEP      L**3/T
     ------------------                 ------------------------

           IN:                                      IN:
           ---                                      ---
             STORAGE =    33844100.0000               STORAGE =      928583.0000
       CONSTANT HEAD =           0.0000         CONSTANT HEAD =           0.0000
       RIVER LEAKAGE =    84928248.0000         RIVER LEAKAGE =      866459.0000
            RECHARGE =        1010.1760              RECHARGE =       4.2275E-03

            TOTAL IN =   118773360.0000              TOTAL IN =     1795042.0000

          OUT:                                     OUT:
          ----                                     ----
             STORAGE =   118705304.0000               STORAGE =     1790002.3750
       CONSTANT HEAD =           0.0000         CONSTANT HEAD =           0.0000
       RIVER LEAKAGE =       83910.1953         RIVER LEAKAGE =        5202.8120
            RECHARGE =           0.0000              RECHARGE =           0.0000

           TOTAL OUT =   118789216.0000             TOTAL OUT =     1795205.1250

            IN - OUT =      -15856.0000              IN - OUT =        -163.1250

 PERCENT DISCREPANCY =          -0.01     PERCENT DISCREPANCY =          -0.01






         TIME SUMMARY AT END OF TIME STEP   36 IN STRESS PERIOD    1
                    SECONDS     MINUTES      HOURS       DAYS        YEARS
                    -----------------------------------------------------------
   TIME STEP LENGTH  86400.      1440.0      24.000      1.0000     2.73785E-03
 STRESS PERIOD TIME 3.11040E+06  51840.      864.00      36.000     9.85626E-02
         TOTAL TIME 3.11040E+06  51840.      864.00      36.000     9.85626E-02
1
 
 SOLVING FOR HEAD 
                                                   Max.-Head-Change                        Max.-Flux-Residual
  Residual-Control   Outer-Iter.   Inner-Iter.     Column Row Layer    Max.-Head-Change    Column Row Layer    Max.-Flux-Residual            L2-New               L2-Old           Solver-Max-Delh
          0                 1           2            58   12     1       0.2169082298E+00      31  111    1       0.1463464418E+06      0.2425674533E+06      0.6238172438E+02      0.2169082298E+00
          0                 2           2            36   40     1       0.1603598096E+00      31  111    1      -0.1463503218E+05      0.2425730427E+05      0.2425674533E+06      0.1603598096E+00
          0                 3           2            36   40     1       0.1598919043E+00      31  111    1      -0.7317541304E+03      0.1212951635E+04      0.2425730427E+05      0.1598919043E+00

    ------------------------------------------------
       NWT REQUIRED            3 OUTER ITERATIONS 
       AND A TOTAL OF          6 INNER ITERATIONS.
    ------------------------------------------------

 OUTPUT CONTROL FOR STRESS PERIOD    1   TIME STEP   37
    SAVE HEAD FOR ALL LAYERS
    SAVE DRAWDOWN FOR ALL LAYERS
    SAVE BUDGET
    PRINT BUDGET
 UBDSV1 SAVING "         STORAGE" ON UNIT   9 AT TIME STEP 37, STRESS PERIOD   1
 UBDSV2 SAVING "   CONSTANT HEAD" ON UNIT   9 AT TIME STEP 37, STRESS PERIOD   1
 UBDSV1 SAVING "FLOW RIGHT FACE " ON UNIT   9 AT TIME STEP 37, STRESS PERIOD   1
 UBDSV1 SAVING "FLOW FRONT FACE " ON UNIT   9 AT TIME STEP 37, STRESS PERIOD   1
 UBDSV4 SAVING "   RIVER LEAKAGE" ON UNIT   9 AT TIME STEP 37, STRESS PERIOD   1
 UBDSV3 SAVING "        RECHARGE" ON UNIT   9 AT TIME STEP 37, STRESS PERIOD   1

 HEAD WILL BE SAVED ON UNIT   37 AT END OF TIME STEP   37, STRESS PERIOD    1

 DRAWDOWN WILL BE SAVED ON UNIT   38 AT END OF TIME STEP   37, STRESS PERIOD    1
1
  VOLUMETRIC BUDGET FOR ENTIRE MODEL AT END OF TIME STEP   37, STRESS PERIOD   1
  ------------------------------------------------------------------------------

     CUMULATIVE VOLUMES      L**3       RATES FOR THIS TIME STEP      L**3/T
     ------------------                 ------------------------

           IN:                                      IN:
           ---                                      ---
             STORAGE =    34772072.0000               STORAGE =      927971.3125
       CONSTANT HEAD =           0.0000         CONSTANT HEAD =           0.0000
       RIVER LEAKAGE =    85794552.0000         RIVER LEAKAGE =      866301.9375
            RECHARGE =        1010.1794              RECHARGE =       3.3415E-03

            TOTAL IN =   120567632.0000              TOTAL IN =     1794273.2500

          OUT:                                     OUT:
          ----                                     ----
             STORAGE =   120494528.0000               STORAGE =     1789226.0000
       CONSTANT HEAD =           0.0000         CONSTANT HEAD =           0.0000
       RIVER LEAKAGE =       89114.8750         RIVER LEAKAGE =        5204.6821
            RECHARGE =           0.0000              RECHARGE =           0.0000

           TOTAL OUT =   120583640.0000             TOTAL OUT =     1794430.6250

            IN - OUT =      -16008.0000              IN - OUT =        -157.3750

 PERCENT DISCREPANCY =          -0.01     PERCENT DISCREPANCY =          -0.01






         TIME SUMMARY AT END OF TIME STEP   37 IN STRESS PERIOD    1
                    SECONDS     MINUTES      HOURS       DAYS        YEARS
                    -----------------------------------------------------------
   TIME STEP LENGTH  86400.      1440.0      24.000      1.0000     2.73785E-03
 STRESS PERIOD TIME 3.19680E+06  53280.      888.00      37.000     0.10130    
         TOTAL TIME 3.19680E+06  53280.      888.00      37.000     0.10130    
1
 
 SOLVING FOR HEAD 
                                                   Max.-Head-Change                        Max.-Flux-Residual
  Residual-Control   Outer-Iter.   Inner-Iter.     Column Row Layer    Max.-Head-Change    Column Row Layer    Max.-Flux-Residual            L2-New               L2-Old           Solver-Max-Delh
          0                 1           2            58   12     1       0.2169036516E+00      31  111    1       0.1463104040E+06      0.2424596963E+06      0.6227193685E+02      0.2169036516E+00
          0                 2           2            36   40     1       0.1634474282E+00      12  126    1      -0.4513204415E+05      0.5125284764E+05      0.2424596963E+06      0.1634474282E+00
          0                 3           2            36   40     1       0.1629576534E+00      12  126    1      -0.2256637768E+04      0.2562710250E+04      0.5125284764E+05      0.1629576534E+00
          1                 3           0            36   40     1       0.1140703554E+00      36   40    1      -0.9346357960E+04      0.9347245564E+04      0.2562710250E+04      0.1629576534E+00
          2                 3           0            36   40     1       0.7984924745E-01      36   40    1      -0.4457264548E+04      0.4539203613E+04      0.9347245564E+04      0.1629576534E+00
          0                 4           2            58   11     1       0.1416539996E+00      12  126    1      -0.1206161860E+04      0.1716808968E+04      0.4539203613E+04      0.1416539996E+00

    ------------------------------------------------
       NWT REQUIRED            4 OUTER ITERATIONS 
       AND A TOTAL OF          8 INNER ITERATIONS.
    ------------------------------------------------

 OUTPUT CONTROL FOR STRESS PERIOD    1   TIME STEP   38
    SAVE HEAD FOR ALL LAYERS
    SAVE DRAWDOWN FOR ALL LAYERS
    SAVE BUDGET
    PRINT BUDGET
 UBDSV1 SAVING "         STORAGE" ON UNIT   9 AT TIME STEP 38, STRESS PERIOD   1
 UBDSV2 SAVING "   CONSTANT HEAD" ON UNIT   9 AT TIME STEP 38, STRESS PERIOD   1
 UBDSV1 SAVING "FLOW RIGHT FACE " ON UNIT   9 AT TIME STEP 38, STRESS PERIOD   1
 UBDSV1 SAVING "FLOW FRONT FACE " ON UNIT   9 AT TIME STEP 38, STRESS PERIOD   1
 UBDSV4 SAVING "   RIVER LEAKAGE" ON UNIT   9 AT TIME STEP 38, STRESS PERIOD   1
 UBDSV3 SAVING "        RECHARGE" ON UNIT   9 AT TIME STEP 38, STRESS PERIOD   1

 HEAD WILL BE SAVED ON UNIT   37 AT END OF TIME STEP   38, STRESS PERIOD    1

 DRAWDOWN WILL BE SAVED ON UNIT   38 AT END OF TIME STEP   38, STRESS PERIOD    1
1
  VOLUMETRIC BUDGET FOR ENTIRE MODEL AT END OF TIME STEP   38, STRESS PERIOD   1
  ------------------------------------------------------------------------------

     CUMULATIVE VOLUMES      L**3       RATES FOR THIS TIME STEP      L**3/T
     ------------------                 ------------------------

           IN:                                      IN:
           ---                                      ---
             STORAGE =    35699324.0000               STORAGE =      927252.3125
       CONSTANT HEAD =           0.0000         CONSTANT HEAD =           0.0000
       RIVER LEAKAGE =    86660848.0000         RIVER LEAKAGE =      866297.3750
            RECHARGE =        1010.1820              RECHARGE =       2.6432E-03

            TOTAL IN =   122361184.0000              TOTAL IN =     1793549.7500

          OUT:                                     OUT:
          ----                                     ----
             STORAGE =   122283048.0000               STORAGE =     1788521.1250
       CONSTANT HEAD =           0.0000         CONSTANT HEAD =           0.0000
       RIVER LEAKAGE =       94321.4531         RIVER LEAKAGE =        5206.5796
            RECHARGE =           0.0000              RECHARGE =           0.0000

           TOTAL OUT =   122377368.0000             TOTAL OUT =     1793727.7500

            IN - OUT =      -16184.0000              IN - OUT =        -178.0000

 PERCENT DISCREPANCY =          -0.01     PERCENT DISCREPANCY =          -0.01






         TIME SUMMARY AT END OF TIME STEP   38 IN STRESS PERIOD    1
                    SECONDS     MINUTES      HOURS       DAYS        YEARS
                    -----------------------------------------------------------
   TIME STEP LENGTH  86400.      1440.0      24.000      1.0000     2.73785E-03
 STRESS PERIOD TIME 3.28320E+06  54720.      912.00      38.000     0.10404    
         TOTAL TIME 3.28320E+06  54720.      912.00      38.000     0.10404    
1
 
 SOLVING FOR HEAD 
                                                   Max.-Head-Change                        Max.-Flux-Residual
  Residual-Control   Outer-Iter.   Inner-Iter.     Column Row Layer    Max.-Head-Change    Column Row Layer    Max.-Flux-Residual            L2-New               L2-Old           Solver-Max-Delh
          0                 1           2            58   12     1       0.2168991928E+00      31  111    1       0.1462741575E+06      0.2423518393E+06      0.8686879977E+02      0.2168991928E+00
          0                 2           2            58   11     1       0.1445774752E+00      31  111    1      -0.1462780338E+05      0.2423574174E+05      0.2423518393E+06      0.1445774752E+00
          0                 3           2            58   11     1       0.1433562727E+00      31  111    1      -0.7313926879E+03      0.1211866614E+04      0.2423574174E+05      0.1433562727E+00
          0                 4           2            58   11     1       0.1421424523E+00      56   34    1      -0.7976300679E+03      0.8000425003E+03      0.1211866614E+04      0.1421424523E+00

    ------------------------------------------------
       NWT REQUIRED            4 OUTER ITERATIONS 
       AND A TOTAL OF          8 INNER ITERATIONS.
    ------------------------------------------------

 OUTPUT CONTROL FOR STRESS PERIOD    1   TIME STEP   39
    SAVE HEAD FOR ALL LAYERS
    SAVE DRAWDOWN FOR ALL LAYERS
    SAVE BUDGET
    PRINT BUDGET
 UBDSV1 SAVING "         STORAGE" ON UNIT   9 AT TIME STEP 39, STRESS PERIOD   1
 UBDSV2 SAVING "   CONSTANT HEAD" ON UNIT   9 AT TIME STEP 39, STRESS PERIOD   1
 UBDSV1 SAVING "FLOW RIGHT FACE " ON UNIT   9 AT TIME STEP 39, STRESS PERIOD   1
 UBDSV1 SAVING "FLOW FRONT FACE " ON UNIT   9 AT TIME STEP 39, STRESS PERIOD   1
 UBDSV4 SAVING "   RIVER LEAKAGE" ON UNIT   9 AT TIME STEP 39, STRESS PERIOD   1
 UBDSV3 SAVING "        RECHARGE" ON UNIT   9 AT TIME STEP 39, STRESS PERIOD   1

 HEAD WILL BE SAVED ON UNIT   37 AT END OF TIME STEP   39, STRESS PERIOD    1

 DRAWDOWN WILL BE SAVED ON UNIT   38 AT END OF TIME STEP   39, STRESS PERIOD    1
1
  VOLUMETRIC BUDGET FOR ENTIRE MODEL AT END OF TIME STEP   39, STRESS PERIOD   1
  ------------------------------------------------------------------------------

     CUMULATIVE VOLUMES      L**3       RATES FOR THIS TIME STEP      L**3/T
     ------------------                 ------------------------

           IN:                                      IN:
           ---                                      ---
             STORAGE =    36625852.0000               STORAGE =      926529.7500
       CONSTANT HEAD =           0.0000         CONSTANT HEAD =           0.0000
       RIVER LEAKAGE =    87527144.0000         RIVER LEAKAGE =      866294.1875
            RECHARGE =        1010.1841              RECHARGE =       2.0924E-03

            TOTAL IN =   124154000.0000              TOTAL IN =     1792824.0000

          OUT:                                     OUT:
          ----                                     ----
             STORAGE =   124070664.0000               STORAGE =     1787613.6250
       CONSTANT HEAD =           0.0000         CONSTANT HEAD =           0.0000
       RIVER LEAKAGE =       99529.9062         RIVER LEAKAGE =        5208.4497
            RECHARGE =           0.0000              RECHARGE =           0.0000

           TOTAL OUT =   124170192.0000             TOTAL OUT =     1792822.1250

            IN - OUT =      -16192.0000              IN - OUT =           1.8750

 PERCENT DISCREPANCY =          -0.01     PERCENT DISCREPANCY =           0.00






         TIME SUMMARY AT END OF TIME STEP   39 IN STRESS PERIOD    1
                    SECONDS     MINUTES      HOURS       DAYS        YEARS
                    -----------------------------------------------------------
   TIME STEP LENGTH  86400.      1440.0      24.000      1.0000     2.73785E-03
 STRESS PERIOD TIME 3.36960E+06  56160.      936.00      39.000     0.10678    
         TOTAL TIME 3.36960E+06  56160.      936.00      39.000     0.10678    
1
 
 SOLVING FOR HEAD 
                                                   Max.-Head-Change                        Max.-Flux-Residual
  Residual-Control   Outer-Iter.   Inner-Iter.     Column Row Layer    Max.-Head-Change    Column Row Layer    Max.-Flux-Residual            L2-New               L2-Old           Solver-Max-Delh
          0                 1           2            58   12     1       0.2168946537E+00      31  111    1       0.1462377264E+06      0.2422438610E+06      0.4223608210E+02      0.2168946537E+00
          0                 2           2            58   11     1       0.1449556477E+00      31  111    1      -0.1462416007E+05      0.2422494370E+05      0.2422438610E+06      0.1449556477E+00
          0                 3           2            58   11     1       0.1437000869E+00      31  111    1      -0.7312105213E+03      0.1211329696E+04      0.2422494370E+05      0.1437000869E+00

    ------------------------------------------------
       NWT REQUIRED            3 OUTER ITERATIONS 
       AND A TOTAL OF          6 INNER ITERATIONS.
    ------------------------------------------------

 OUTPUT CONTROL FOR STRESS PERIOD    1   TIME STEP   40
    SAVE HEAD FOR ALL LAYERS
    SAVE DRAWDOWN FOR ALL LAYERS
    SAVE BUDGET
    PRINT BUDGET
 UBDSV1 SAVING "         STORAGE" ON UNIT   9 AT TIME STEP 40, STRESS PERIOD   1
 UBDSV2 SAVING "   CONSTANT HEAD" ON UNIT   9 AT TIME STEP 40, STRESS PERIOD   1
 UBDSV1 SAVING "FLOW RIGHT FACE " ON UNIT   9 AT TIME STEP 40, STRESS PERIOD   1
 UBDSV1 SAVING "FLOW FRONT FACE " ON UNIT   9 AT TIME STEP 40, STRESS PERIOD   1
 UBDSV4 SAVING "   RIVER LEAKAGE" ON UNIT   9 AT TIME STEP 40, STRESS PERIOD   1
 UBDSV3 SAVING "        RECHARGE" ON UNIT   9 AT TIME STEP 40, STRESS PERIOD   1

 HEAD WILL BE SAVED ON UNIT   37 AT END OF TIME STEP   40, STRESS PERIOD    1

 DRAWDOWN WILL BE SAVED ON UNIT   38 AT END OF TIME STEP   40, STRESS PERIOD    1
1
  VOLUMETRIC BUDGET FOR ENTIRE MODEL AT END OF TIME STEP   40, STRESS PERIOD   1
  ------------------------------------------------------------------------------

     CUMULATIVE VOLUMES      L**3       RATES FOR THIS TIME STEP      L**3/T
     ------------------                 ------------------------

           IN:                                      IN:
           ---                                      ---
             STORAGE =    37551992.0000               STORAGE =      926140.0625
       CONSTANT HEAD =           0.0000         CONSTANT HEAD =           0.0000
       RIVER LEAKAGE =    88393432.0000         RIVER LEAKAGE =      866291.0000
            RECHARGE =        1010.1857              RECHARGE =       1.6575E-03

            TOTAL IN =   125946432.0000              TOTAL IN =     1792431.0000

          OUT:                                     OUT:
          ----                                     ----
             STORAGE =   125858048.0000               STORAGE =     1787382.2500
       CONSTANT HEAD =           0.0000         CONSTANT HEAD =           0.0000
       RIVER LEAKAGE =      104740.2266         RIVER LEAKAGE =        5210.3208
            RECHARGE =           0.0000              RECHARGE =           0.0000

           TOTAL OUT =   125962792.0000             TOTAL OUT =     1792592.6250

            IN - OUT =      -16360.0000              IN - OUT =        -161.6250

 PERCENT DISCREPANCY =          -0.01     PERCENT DISCREPANCY =          -0.01






         TIME SUMMARY AT END OF TIME STEP   40 IN STRESS PERIOD    1
                    SECONDS     MINUTES      HOURS       DAYS        YEARS
                    -----------------------------------------------------------
   TIME STEP LENGTH  86400.      1440.0      24.000      1.0000     2.73785E-03
 STRESS PERIOD TIME 3.45600E+06  57600.      960.00      40.000     0.10951    
         TOTAL TIME 3.45600E+06  57600.      960.00      40.000     0.10951    
1
 
 SOLVING FOR HEAD 
                                                   Max.-Head-Change                        Max.-Flux-Residual
  Residual-Control   Outer-Iter.   Inner-Iter.     Column Row Layer    Max.-Head-Change    Column Row Layer    Max.-Flux-Residual            L2-New               L2-Old           Solver-Max-Delh
          0                 1           2            58   12     1       0.2168901373E+00      31  111    1       0.1462010877E+06      0.2421356884E+06      0.6211530927E+02      0.2168901373E+00
          0                 2           2            58   11     1       0.1464130289E+00      31  111    1      -0.1462049601E+05      0.2421409437E+05      0.2421356884E+06      0.1464130289E+00
          0                 3           2            58   11     1       0.1451133545E+00      31  111    1      -0.7310273172E+03      0.1210790529E+04      0.2421409437E+05      0.1451133545E+00

    ------------------------------------------------
       NWT REQUIRED            3 OUTER ITERATIONS 
       AND A TOTAL OF          6 INNER ITERATIONS.
    ------------------------------------------------

 OUTPUT CONTROL FOR STRESS PERIOD    1   TIME STEP   41
    SAVE HEAD FOR ALL LAYERS
    SAVE DRAWDOWN FOR ALL LAYERS
    SAVE BUDGET
    PRINT BUDGET
 UBDSV1 SAVING "         STORAGE" ON UNIT   9 AT TIME STEP 41, STRESS PERIOD   1
 UBDSV2 SAVING "   CONSTANT HEAD" ON UNIT   9 AT TIME STEP 41, STRESS PERIOD   1
 UBDSV1 SAVING "FLOW RIGHT FACE " ON UNIT   9 AT TIME STEP 41, STRESS PERIOD   1
 UBDSV1 SAVING "FLOW FRONT FACE " ON UNIT   9 AT TIME STEP 41, STRESS PERIOD   1
 UBDSV4 SAVING "   RIVER LEAKAGE" ON UNIT   9 AT TIME STEP 41, STRESS PERIOD   1
 UBDSV3 SAVING "        RECHARGE" ON UNIT   9 AT TIME STEP 41, STRESS PERIOD   1

 HEAD WILL BE SAVED ON UNIT   37 AT END OF TIME STEP   41, STRESS PERIOD    1

 DRAWDOWN WILL BE SAVED ON UNIT   38 AT END OF TIME STEP   41, STRESS PERIOD    1
1
  VOLUMETRIC BUDGET FOR ENTIRE MODEL AT END OF TIME STEP   41, STRESS PERIOD   1
  ------------------------------------------------------------------------------

     CUMULATIVE VOLUMES      L**3       RATES FOR THIS TIME STEP      L**3/T
     ------------------                 ------------------------

           IN:                                      IN:
           ---                                      ---
             STORAGE =    38477524.0000               STORAGE =      925531.0000
       CONSTANT HEAD =           0.0000         CONSTANT HEAD =           0.0000
       RIVER LEAKAGE =    89259720.0000         RIVER LEAKAGE =      866287.7500
            RECHARGE =        1010.1871              RECHARGE =       1.3138E-03

            TOTAL IN =   127738256.0000              TOTAL IN =     1791818.7500

          OUT:                                     OUT:
          ----                                     ----
             STORAGE =   127644816.0000               STORAGE =     1786767.0000
       CONSTANT HEAD =           0.0000         CONSTANT HEAD =           0.0000
       RIVER LEAKAGE =      109952.4219         RIVER LEAKAGE =        5212.1919
            RECHARGE =           0.0000              RECHARGE =           0.0000

           TOTAL OUT =   127754768.0000             TOTAL OUT =     1791979.2500

            IN - OUT =      -16512.0000              IN - OUT =        -160.5000

 PERCENT DISCREPANCY =          -0.01     PERCENT DISCREPANCY =          -0.01






         TIME SUMMARY AT END OF TIME STEP   41 IN STRESS PERIOD    1
                    SECONDS     MINUTES      HOURS       DAYS        YEARS
                    -----------------------------------------------------------
   TIME STEP LENGTH  86400.      1440.0      24.000      1.0000     2.73785E-03
 STRESS PERIOD TIME 3.54240E+06  59040.      984.00      41.000     0.11225    
         TOTAL TIME 3.54240E+06  59040.      984.00      41.000     0.11225    
1
 
 SOLVING FOR HEAD 
                                                   Max.-Head-Change                        Max.-Flux-Residual
  Residual-Control   Outer-Iter.   Inner-Iter.     Column Row Layer    Max.-Head-Change    Column Row Layer    Max.-Flux-Residual            L2-New               L2-Old           Solver-Max-Delh
          0                 1           2            58   12     1       0.2168856436E+00      31  111    1       0.1461642333E+06      0.2420273991E+06      0.6215245376E+02      0.2168856436E+00
          0                 2           2            31  111     1       0.4169473517E+02      31  111    1       0.1656562306E+05      0.2542771738E+05      0.2420273991E+06      0.4169473517E+02
          1                 2           0            31  111     1       0.2918631412E+02      31  111    1      -0.1894522018E+07      0.1894524239E+07      0.2542771738E+05      0.4169473517E+02
          2                 2           0            31  111     1       0.2043041954E+02      31  111    1      -0.1319717664E+07      0.1319734405E+07      0.1894524239E+07      0.4169473517E+02
          3                 2           0            31  111     1       0.1430129343E+02      31  111    1      -0.9177001347E+06      0.9177583864E+06      0.1319734405E+07      0.4169473517E+02
          4                 2           0            31  111     1       0.1001090523E+02      31  111    1      -0.6362878882E+06      0.6364207799E+06      0.9177583864E+06      0.4169473517E+02
          5                 2           0            31  111     1       0.7007633543E+01      31  111    1      -0.4392993285E+06      0.4395515323E+06      0.6364207799E+06      0.4169473517E+02
          6                 2           0            31  111     1       0.4905343397E+01      31  111    1      -0.3014678556E+06      0.3019033531E+06      0.4395515323E+06      0.4169473517E+02
          7                 2           0            31  111     1       0.3433740319E+01      31  111    1      -0.2050905451E+06      0.2058050710E+06      0.3019033531E+06      0.4169473517E+02
          8                 2           0            31  111     1       0.2403618182E+01      31  111    1      -0.1376278084E+06      0.1387717951E+06      0.2058050710E+06      0.4169473517E+02
                                                   Max.-Head-Change                        Max.-Flux-Residual
  Residual-Control   Outer-Iter.   Inner-Iter.     Column Row Layer    Max.-Head-Change    Column Row Layer    Max.-Flux-Residual            L2-New               L2-Old           Solver-Max-Delh
          9                 2           0            31  111     1       0.1682532699E+01      31  111    1      -0.9043117317E+05      0.9225129577E+05      0.1387717951E+06      0.4169473517E+02
         10                 2           0            31  111     1       0.1177772869E+01      31  111    1      -0.5739352984E+05      0.6031733304E+05      0.9225129577E+05      0.4169473517E+02
         11                 2           0            31  111     1       0.8244409945E+00      31  111    1      -0.3426718030E+05      0.3907280175E+05      0.6031733304E+05      0.4169473517E+02
          0                 3           2            31  111     1      -0.3748608693E+00      31  111    1      -0.1807873608E+05      0.2617517964E+05      0.3907280175E+05     -0.3748608693E+00
          0                 4           2            58   11     1       0.1463576313E+00      31  111    1      -0.9039370646E+03      0.1308703321E+04      0.2617517964E+05      0.1463576313E+00

    ------------------------------------------------
       NWT REQUIRED            4 OUTER ITERATIONS 
       AND A TOTAL OF          8 INNER ITERATIONS.
    ------------------------------------------------

 OUTPUT CONTROL FOR STRESS PERIOD    1   TIME STEP   42
    SAVE HEAD FOR ALL LAYERS
    SAVE DRAWDOWN FOR ALL LAYERS
    SAVE BUDGET
    PRINT BUDGET
 UBDSV1 SAVING "         STORAGE" ON UNIT   9 AT TIME STEP 42, STRESS PERIOD   1
 UBDSV2 SAVING "   CONSTANT HEAD" ON UNIT   9 AT TIME STEP 42, STRESS PERIOD   1
 UBDSV1 SAVING "FLOW RIGHT FACE " ON UNIT   9 AT TIME STEP 42, STRESS PERIOD   1
 UBDSV1 SAVING "FLOW FRONT FACE " ON UNIT   9 AT TIME STEP 42, STRESS PERIOD   1
 UBDSV4 SAVING "   RIVER LEAKAGE" ON UNIT   9 AT TIME STEP 42, STRESS PERIOD   1
 UBDSV3 SAVING "        RECHARGE" ON UNIT   9 AT TIME STEP 42, STRESS PERIOD   1

 HEAD WILL BE SAVED ON UNIT   37 AT END OF TIME STEP   42, STRESS PERIOD    1

 DRAWDOWN WILL BE SAVED ON UNIT   38 AT END OF TIME STEP   42, STRESS PERIOD    1
1
  VOLUMETRIC BUDGET FOR ENTIRE MODEL AT END OF TIME STEP   42, STRESS PERIOD   1
  ------------------------------------------------------------------------------

     CUMULATIVE VOLUMES      L**3       RATES FOR THIS TIME STEP      L**3/T
     ------------------                 ------------------------

           IN:                                      IN:
           ---                                      ---
             STORAGE =    39402424.0000               STORAGE =      924899.5625
       CONSTANT HEAD =           0.0000         CONSTANT HEAD =           0.0000
       RIVER LEAKAGE =    90109584.0000         RIVER LEAKAGE =      849862.0625
            RECHARGE =        1010.1881              RECHARGE =       1.0419E-03

            TOTAL IN =   129513016.0000              TOTAL IN =     1774761.6250

          OUT:                                     OUT:
          ----                                     ----
             STORAGE =   129414696.0000               STORAGE =     1769882.3750
       CONSTANT HEAD =           0.0000         CONSTANT HEAD =           0.0000
       RIVER LEAKAGE =      115166.5156         RIVER LEAKAGE =        5214.0913
            RECHARGE =           0.0000              RECHARGE =           0.0000

           TOTAL OUT =   129529864.0000             TOTAL OUT =     1775096.5000

            IN - OUT =      -16848.0000              IN - OUT =        -334.8750

 PERCENT DISCREPANCY =          -0.01     PERCENT DISCREPANCY =          -0.02






         TIME SUMMARY AT END OF TIME STEP   42 IN STRESS PERIOD    1
                    SECONDS     MINUTES      HOURS       DAYS        YEARS
                    -----------------------------------------------------------
   TIME STEP LENGTH  86400.      1440.0      24.000      1.0000     2.73785E-03
 STRESS PERIOD TIME 3.62880E+06  60480.      1008.0      42.000     0.11499    
         TOTAL TIME 3.62880E+06  60480.      1008.0      42.000     0.11499    
1
 
 SOLVING FOR HEAD 
                                                   Max.-Head-Change                        Max.-Flux-Residual
  Residual-Control   Outer-Iter.   Inner-Iter.     Column Row Layer    Max.-Head-Change    Column Row Layer    Max.-Flux-Residual            L2-New               L2-Old           Solver-Max-Delh
          0                 1           2            31  111     1       0.3111501745E+01      31  111    1       0.1295980609E+06      0.2323097552E+06      0.1828665420E+03      0.3111501745E+01
          0                 2           2            31  111     1      -0.2685928497E+00      24  111    1      -0.3280551321E+05      0.4020803158E+05      0.2323097552E+06     -0.2685928497E+00
          0                 3           2            58   11     1       0.1474872146E+00      24  111    1      -0.1640290886E+04      0.2012318751E+04      0.4020803158E+05      0.1474872146E+00

    ------------------------------------------------
       NWT REQUIRED            3 OUTER ITERATIONS 
       AND A TOTAL OF          6 INNER ITERATIONS.
    ------------------------------------------------

 OUTPUT CONTROL FOR STRESS PERIOD    1   TIME STEP   43
    SAVE HEAD FOR ALL LAYERS
    SAVE DRAWDOWN FOR ALL LAYERS
    SAVE BUDGET
    PRINT BUDGET
 UBDSV1 SAVING "         STORAGE" ON UNIT   9 AT TIME STEP 43, STRESS PERIOD   1
 UBDSV2 SAVING "   CONSTANT HEAD" ON UNIT   9 AT TIME STEP 43, STRESS PERIOD   1
 UBDSV1 SAVING "FLOW RIGHT FACE " ON UNIT   9 AT TIME STEP 43, STRESS PERIOD   1
 UBDSV1 SAVING "FLOW FRONT FACE " ON UNIT   9 AT TIME STEP 43, STRESS PERIOD   1
 UBDSV4 SAVING "   RIVER LEAKAGE" ON UNIT   9 AT TIME STEP 43, STRESS PERIOD   1
 UBDSV3 SAVING "        RECHARGE" ON UNIT   9 AT TIME STEP 43, STRESS PERIOD   1

 HEAD WILL BE SAVED ON UNIT   37 AT END OF TIME STEP   43, STRESS PERIOD    1

 DRAWDOWN WILL BE SAVED ON UNIT   38 AT END OF TIME STEP   43, STRESS PERIOD    1
1
  VOLUMETRIC BUDGET FOR ENTIRE MODEL AT END OF TIME STEP   43, STRESS PERIOD   1
  ------------------------------------------------------------------------------

     CUMULATIVE VOLUMES      L**3       RATES FOR THIS TIME STEP      L**3/T
     ------------------                 ------------------------

           IN:                                      IN:
           ---                                      ---
             STORAGE =    40326608.0000               STORAGE =      924183.8125
       CONSTANT HEAD =           0.0000         CONSTANT HEAD =           0.0000
       RIVER LEAKAGE =    90831272.0000         RIVER LEAKAGE =      721689.5625
            RECHARGE =        1010.1890              RECHARGE =       8.2674E-04

            TOTAL IN =   131158888.0000              TOTAL IN =     1645873.3750

          OUT:                                     OUT:
          ----                                     ----
             STORAGE =   131055376.0000               STORAGE =     1640676.1250
       CONSTANT HEAD =           0.0000         CONSTANT HEAD =           0.0000
       RIVER LEAKAGE =      120607.6953         RIVER LEAKAGE =        5441.1802
            RECHARGE =           0.0000              RECHARGE =           0.0000

           TOTAL OUT =   131175984.0000             TOTAL OUT =     1646117.2500

            IN - OUT =      -17096.0000              IN - OUT =        -243.8750

 PERCENT DISCREPANCY =          -0.01     PERCENT DISCREPANCY =          -0.01






         TIME SUMMARY AT END OF TIME STEP   43 IN STRESS PERIOD    1
                    SECONDS     MINUTES      HOURS       DAYS        YEARS
                    -----------------------------------------------------------
   TIME STEP LENGTH  86400.      1440.0      24.000      1.0000     2.73785E-03
 STRESS PERIOD TIME 3.71520E+06  61920.      1032.0      43.000     0.11773    
         TOTAL TIME 3.71520E+06  61920.      1032.0      43.000     0.11773    
1
 
 SOLVING FOR HEAD 
                                                   Max.-Head-Change                        Max.-Flux-Residual
  Residual-Control   Outer-Iter.   Inner-Iter.     Column Row Layer    Max.-Head-Change    Column Row Layer    Max.-Flux-Residual            L2-New               L2-Old           Solver-Max-Delh
          0                 1           2            58   12     1       0.2168764971E+00      34  106    1       0.1106877477E+06      0.1927022158E+06      0.1015787588E+03      0.2168764971E+00
          0                 2           2            58   11     1       0.1499046386E+00      34  106    1      -0.1106906544E+05      0.1927063150E+05      0.1927022158E+06      0.1499046386E+00
          0                 3           2            58   11     1       0.1484773426E+00      34  106    1      -0.5534551582E+03      0.9636386018E+03      0.1927063150E+05      0.1484773426E+00

    ------------------------------------------------
       NWT REQUIRED            3 OUTER ITERATIONS 
       AND A TOTAL OF          6 INNER ITERATIONS.
    ------------------------------------------------

 OUTPUT CONTROL FOR STRESS PERIOD    1   TIME STEP   44
    SAVE HEAD FOR ALL LAYERS
    SAVE DRAWDOWN FOR ALL LAYERS
    SAVE BUDGET
    PRINT BUDGET
 UBDSV1 SAVING "         STORAGE" ON UNIT   9 AT TIME STEP 44, STRESS PERIOD   1
 UBDSV2 SAVING "   CONSTANT HEAD" ON UNIT   9 AT TIME STEP 44, STRESS PERIOD   1
 UBDSV1 SAVING "FLOW RIGHT FACE " ON UNIT   9 AT TIME STEP 44, STRESS PERIOD   1
 UBDSV1 SAVING "FLOW FRONT FACE " ON UNIT   9 AT TIME STEP 44, STRESS PERIOD   1
 UBDSV4 SAVING "   RIVER LEAKAGE" ON UNIT   9 AT TIME STEP 44, STRESS PERIOD   1
 UBDSV3 SAVING "        RECHARGE" ON UNIT   9 AT TIME STEP 44, STRESS PERIOD   1

 HEAD WILL BE SAVED ON UNIT   37 AT END OF TIME STEP   44, STRESS PERIOD    1

 DRAWDOWN WILL BE SAVED ON UNIT   38 AT END OF TIME STEP   44, STRESS PERIOD    1
1
  VOLUMETRIC BUDGET FOR ENTIRE MODEL AT END OF TIME STEP   44, STRESS PERIOD   1
  ------------------------------------------------------------------------------

     CUMULATIVE VOLUMES      L**3       RATES FOR THIS TIME STEP      L**3/T
     ------------------                 ------------------------

           IN:                                      IN:
           ---                                      ---
             STORAGE =    41250192.0000               STORAGE =      923582.3750
       CONSTANT HEAD =           0.0000         CONSTANT HEAD =           0.0000
       RIVER LEAKAGE =    91552960.0000         RIVER LEAKAGE =      721686.3750
            RECHARGE =        1010.1896              RECHARGE =       6.5631E-04

            TOTAL IN =   132804160.0000              TOTAL IN =     1645268.7500

          OUT:                                     OUT:
          ----                                     ----
             STORAGE =   132694808.0000               STORAGE =     1639431.3750
       CONSTANT HEAD =           0.0000         CONSTANT HEAD =           0.0000
       RIVER LEAKAGE =      126570.9062         RIVER LEAKAGE =        5963.2134
            RECHARGE =           0.0000              RECHARGE =           0.0000

           TOTAL OUT =   132821376.0000             TOTAL OUT =     1645394.6250

            IN - OUT =      -17216.0000              IN - OUT =        -125.8750

 PERCENT DISCREPANCY =          -0.01     PERCENT DISCREPANCY =          -0.01






         TIME SUMMARY AT END OF TIME STEP   44 IN STRESS PERIOD    1
                    SECONDS     MINUTES      HOURS       DAYS        YEARS
                    -----------------------------------------------------------
   TIME STEP LENGTH  86400.      1440.0      24.000      1.0000     2.73785E-03
 STRESS PERIOD TIME 3.80160E+06  63360.      1056.0      44.000     0.12047    
         TOTAL TIME 3.80160E+06  63360.      1056.0      44.000     0.12047    
1
 
 SOLVING FOR HEAD 
                                                   Max.-Head-Change                        Max.-Flux-Residual
  Residual-Control   Outer-Iter.   Inner-Iter.     Column Row Layer    Max.-Head-Change    Column Row Layer    Max.-Flux-Residual            L2-New               L2-Old           Solver-Max-Delh
          0                 1           2            58   12     1       0.2168720681E+00      34  106    1       0.1106059939E+06      0.1925929857E+06      0.5022042388E+02      0.2168720681E+00
          0                 2           2            58   11     1       0.1507982501E+00      38   79    1      -0.3221778995E+05      0.3753561695E+05      0.1925929857E+06      0.1507982501E+00
          0                 3           2            58   11     1       0.1493300763E+00      38   79    1      -0.1610910993E+04      0.1876846827E+04      0.3753561695E+05      0.1493300763E+00

    ------------------------------------------------
       NWT REQUIRED            3 OUTER ITERATIONS 
       AND A TOTAL OF          6 INNER ITERATIONS.
    ------------------------------------------------

 OUTPUT CONTROL FOR STRESS PERIOD    1   TIME STEP   45
    SAVE HEAD FOR ALL LAYERS
    SAVE DRAWDOWN FOR ALL LAYERS
    SAVE BUDGET
    PRINT BUDGET
 UBDSV1 SAVING "         STORAGE" ON UNIT   9 AT TIME STEP 45, STRESS PERIOD   1
 UBDSV2 SAVING "   CONSTANT HEAD" ON UNIT   9 AT TIME STEP 45, STRESS PERIOD   1
 UBDSV1 SAVING "FLOW RIGHT FACE " ON UNIT   9 AT TIME STEP 45, STRESS PERIOD   1
 UBDSV1 SAVING "FLOW FRONT FACE " ON UNIT   9 AT TIME STEP 45, STRESS PERIOD   1
 UBDSV4 SAVING "   RIVER LEAKAGE" ON UNIT   9 AT TIME STEP 45, STRESS PERIOD   1
 UBDSV3 SAVING "        RECHARGE" ON UNIT   9 AT TIME STEP 45, STRESS PERIOD   1

 HEAD WILL BE SAVED ON UNIT   37 AT END OF TIME STEP   45, STRESS PERIOD    1

 DRAWDOWN WILL BE SAVED ON UNIT   38 AT END OF TIME STEP   45, STRESS PERIOD    1
1
  VOLUMETRIC BUDGET FOR ENTIRE MODEL AT END OF TIME STEP   45, STRESS PERIOD   1
  ------------------------------------------------------------------------------

     CUMULATIVE VOLUMES      L**3       RATES FOR THIS TIME STEP      L**3/T
     ------------------                 ------------------------

           IN:                                      IN:
           ---                                      ---
             STORAGE =    42173176.0000               STORAGE =      922982.0625
       CONSTANT HEAD =           0.0000         CONSTANT HEAD =           0.0000
       RIVER LEAKAGE =    92274640.0000         RIVER LEAKAGE =      721683.1250
            RECHARGE =        1010.1902              RECHARGE =       5.2123E-04

            TOTAL IN =   134448832.0000              TOTAL IN =     1644665.2500

          OUT:                                     OUT:
          ----                                     ----
             STORAGE =   134333712.0000               STORAGE =     1638909.0000
       CONSTANT HEAD =           0.0000         CONSTANT HEAD =           0.0000
       RIVER LEAKAGE =      132538.4688         RIVER LEAKAGE =        5967.5684
            RECHARGE =           0.0000              RECHARGE =           0.0000

           TOTAL OUT =   134466256.0000             TOTAL OUT =     1644876.6250

            IN - OUT =      -17424.0000              IN - OUT =        -211.3750

 PERCENT DISCREPANCY =          -0.01     PERCENT DISCREPANCY =          -0.01






         TIME SUMMARY AT END OF TIME STEP   45 IN STRESS PERIOD    1
                    SECONDS     MINUTES      HOURS       DAYS        YEARS
                    -----------------------------------------------------------
   TIME STEP LENGTH  86400.      1440.0      24.000      1.0000     2.73785E-03
 STRESS PERIOD TIME 3.88800E+06  64800.      1080.0      45.000     0.12320    
         TOTAL TIME 3.88800E+06  64800.      1080.0      45.000     0.12320    
1
 
 SOLVING FOR HEAD 
                                                   Max.-Head-Change                        Max.-Flux-Residual
  Residual-Control   Outer-Iter.   Inner-Iter.     Column Row Layer    Max.-Head-Change    Column Row Layer    Max.-Flux-Residual            L2-New               L2-Old           Solver-Max-Delh
          0                 1           2            58   12     1       0.2168676629E+00      34  106    1       0.1105240648E+06      0.1924843804E+06      0.9473399538E+02      0.2168676629E+00
          0                 2           2            58   11     1       0.1515558235E+00      34  106    1      -0.1105269617E+05      0.1924884674E+05      0.1924843804E+06      0.1515558235E+00
          0                 3           2            58   11     1       0.1500477577E+00      34  106    1      -0.5526366880E+03      0.9625370461E+03      0.1924884674E+05      0.1500477577E+00

    ------------------------------------------------
       NWT REQUIRED            3 OUTER ITERATIONS 
       AND A TOTAL OF          6 INNER ITERATIONS.
    ------------------------------------------------

 OUTPUT CONTROL FOR STRESS PERIOD    1   TIME STEP   46
    SAVE HEAD FOR ALL LAYERS
    SAVE DRAWDOWN FOR ALL LAYERS
    SAVE BUDGET
    PRINT BUDGET
 UBDSV1 SAVING "         STORAGE" ON UNIT   9 AT TIME STEP 46, STRESS PERIOD   1
 UBDSV2 SAVING "   CONSTANT HEAD" ON UNIT   9 AT TIME STEP 46, STRESS PERIOD   1
 UBDSV1 SAVING "FLOW RIGHT FACE " ON UNIT   9 AT TIME STEP 46, STRESS PERIOD   1
 UBDSV1 SAVING "FLOW FRONT FACE " ON UNIT   9 AT TIME STEP 46, STRESS PERIOD   1
 UBDSV4 SAVING "   RIVER LEAKAGE" ON UNIT   9 AT TIME STEP 46, STRESS PERIOD   1
 UBDSV3 SAVING "        RECHARGE" ON UNIT   9 AT TIME STEP 46, STRESS PERIOD   1

 HEAD WILL BE SAVED ON UNIT   37 AT END OF TIME STEP   46, STRESS PERIOD    1

 DRAWDOWN WILL BE SAVED ON UNIT   38 AT END OF TIME STEP   46, STRESS PERIOD    1
1
  VOLUMETRIC BUDGET FOR ENTIRE MODEL AT END OF TIME STEP   46, STRESS PERIOD   1
  ------------------------------------------------------------------------------

     CUMULATIVE VOLUMES      L**3       RATES FOR THIS TIME STEP      L**3/T
     ------------------                 ------------------------

           IN:                                      IN:
           ---                                      ---
             STORAGE =    43095560.0000               STORAGE =      922382.3125
       CONSTANT HEAD =           0.0000         CONSTANT HEAD =           0.0000
       RIVER LEAKAGE =    92996320.0000         RIVER LEAKAGE =      721679.8750
            RECHARGE =        1010.1906              RECHARGE =       4.1412E-04

            TOTAL IN =   136092896.0000              TOTAL IN =     1644062.2500

          OUT:                                     OUT:
          ----                                     ----
             STORAGE =   135971936.0000               STORAGE =     1638222.3750
       CONSTANT HEAD =           0.0000         CONSTANT HEAD =           0.0000
       RIVER LEAKAGE =      138508.2500         RIVER LEAKAGE =        5969.7871
            RECHARGE =           0.0000              RECHARGE =           0.0000

           TOTAL OUT =   136110448.0000             TOTAL OUT =     1644192.1250

            IN - OUT =      -17552.0000              IN - OUT =        -129.8750

 PERCENT DISCREPANCY =          -0.01     PERCENT DISCREPANCY =          -0.01






         TIME SUMMARY AT END OF TIME STEP   46 IN STRESS PERIOD    1
                    SECONDS     MINUTES      HOURS       DAYS        YEARS
                    -----------------------------------------------------------
   TIME STEP LENGTH  86400.      1440.0      24.000      1.0000     2.73785E-03
 STRESS PERIOD TIME 3.97440E+06  66240.      1104.0      46.000     0.12594    
         TOTAL TIME 3.97440E+06  66240.      1104.0      46.000     0.12594    
1
 
 SOLVING FOR HEAD 
                                                   Max.-Head-Change                        Max.-Flux-Residual
  Residual-Control   Outer-Iter.   Inner-Iter.     Column Row Layer    Max.-Head-Change    Column Row Layer    Max.-Flux-Residual            L2-New               L2-Old           Solver-Max-Delh
          0                 1           2            58   12     1       0.2168632817E+00      34  106    1       0.1104419701E+06      0.1923757427E+06      0.4992971838E+02      0.2168632817E+00
          0                 2           2            37   70     1       0.2505791228E+02      34  106    1      -0.1104448621E+05      0.2002667972E+05      0.1923757427E+06      0.2505791228E+02
          1                 2           0            37   70     1       0.1754053830E+02      37   70    1      -0.4647884660E+06      0.4647894554E+06      0.2002667972E+05      0.2505791228E+02
          2                 2           0            37   70     1       0.1227837660E+02      37   70    1      -0.3234710549E+06      0.3235348523E+06      0.4647894554E+06      0.2505791228E+02
          3                 2           0            37   70     1       0.8594863473E+01      37   70    1      -0.2245488688E+06      0.2247827247E+06      0.3235348523E+06      0.2505791228E+02
          4                 2           0            37   70     1       0.6016404329E+01      37   70    1      -0.1553033397E+06      0.1558405834E+06      0.2247827247E+06      0.2505791228E+02
          5                 2           0            37   70     1       0.4211482958E+01      37   70    1      -0.1068314702E+06      0.1078522873E+06      0.1558405834E+06      0.2505791228E+02
          6                 2           0            37   70     1       0.2948038021E+01      37   70    1      -0.7290116212E+05      0.7466130043E+05      0.1078522873E+06      0.2505791228E+02
          7                 2           0            37   70     1       0.2063626579E+01      37   70    1      -0.4914994685E+05      0.5201827884E+05      0.7466130043E+05      0.2505791228E+02
          8                 2           0            37   70     1       0.1444538581E+01      37   70    1      -0.3252409645E+05      0.3701787061E+05      0.5201827884E+05      0.2505791228E+02
                                                   Max.-Head-Change                        Max.-Flux-Residual
  Residual-Control   Outer-Iter.   Inner-Iter.     Column Row Layer    Max.-Head-Change    Column Row Layer    Max.-Flux-Residual            L2-New               L2-Old           Solver-Max-Delh
          9                 2           0            37   70     1       0.1011176989E+01      37   70    1      -0.2088600137E+05      0.2765589104E+05      0.3701787061E+05      0.2505791228E+02
         10                 2           0            37   70     1       0.7078238806E+00      37   70    1      -0.1273933495E+05      0.2241511055E+05      0.2765589104E+05      0.2505791228E+02
          0                 3           2            37   70     1      -0.3555995435E+00      34  106    1      -0.1074810582E+05      0.1994606895E+05      0.2241511055E+05     -0.3555995435E+00
          0                 4           2            58   11     1       0.1505896647E+00      34  106    1      -0.5372995796E+03      0.9972228711E+03      0.1994606895E+05      0.1505896647E+00

    ------------------------------------------------
       NWT REQUIRED            4 OUTER ITERATIONS 
       AND A TOTAL OF          8 INNER ITERATIONS.
    ------------------------------------------------

 OUTPUT CONTROL FOR STRESS PERIOD    1   TIME STEP   47
    SAVE HEAD FOR ALL LAYERS
    SAVE DRAWDOWN FOR ALL LAYERS
    SAVE BUDGET
    PRINT BUDGET
 UBDSV1 SAVING "         STORAGE" ON UNIT   9 AT TIME STEP 47, STRESS PERIOD   1
 UBDSV2 SAVING "   CONSTANT HEAD" ON UNIT   9 AT TIME STEP 47, STRESS PERIOD   1
 UBDSV1 SAVING "FLOW RIGHT FACE " ON UNIT   9 AT TIME STEP 47, STRESS PERIOD   1
 UBDSV1 SAVING "FLOW FRONT FACE " ON UNIT   9 AT TIME STEP 47, STRESS PERIOD   1
 UBDSV4 SAVING "   RIVER LEAKAGE" ON UNIT   9 AT TIME STEP 47, STRESS PERIOD   1
 UBDSV3 SAVING "        RECHARGE" ON UNIT   9 AT TIME STEP 47, STRESS PERIOD   1

 HEAD WILL BE SAVED ON UNIT   37 AT END OF TIME STEP   47, STRESS PERIOD    1

 DRAWDOWN WILL BE SAVED ON UNIT   38 AT END OF TIME STEP   47, STRESS PERIOD    1
1
  VOLUMETRIC BUDGET FOR ENTIRE MODEL AT END OF TIME STEP   47, STRESS PERIOD   1
  ------------------------------------------------------------------------------

     CUMULATIVE VOLUMES      L**3       RATES FOR THIS TIME STEP      L**3/T
     ------------------                 ------------------------

           IN:                                      IN:
           ---                                      ---
             STORAGE =    44017336.0000               STORAGE =      921776.8750
       CONSTANT HEAD =           0.0000         CONSTANT HEAD =           0.0000
       RIVER LEAKAGE =    93712296.0000         RIVER LEAKAGE =      715976.5000
            RECHARGE =        1010.1909              RECHARGE =       3.2914E-04

            TOTAL IN =   137730640.0000              TOTAL IN =     1637753.3750

          OUT:                                     OUT:
          ----                                     ----
             STORAGE =   137603856.0000               STORAGE =     1631919.5000
       CONSTANT HEAD =           0.0000         CONSTANT HEAD =           0.0000
       RIVER LEAKAGE =      144480.2500         RIVER LEAKAGE =        5972.0063
            RECHARGE =           0.0000              RECHARGE =           0.0000

           TOTAL OUT =   137748336.0000             TOTAL OUT =     1637891.5000

            IN - OUT =      -17696.0000              IN - OUT =        -138.1250

 PERCENT DISCREPANCY =          -0.01     PERCENT DISCREPANCY =          -0.01






         TIME SUMMARY AT END OF TIME STEP   47 IN STRESS PERIOD    1
                    SECONDS     MINUTES      HOURS       DAYS        YEARS
                    -----------------------------------------------------------
   TIME STEP LENGTH  86400.      1440.0      24.000      1.0000     2.73785E-03
 STRESS PERIOD TIME 4.06080E+06  67680.      1128.0      47.000     0.12868    
         TOTAL TIME 4.06080E+06  67680.      1128.0      47.000     0.12868    
1
 
 SOLVING FOR HEAD 
                                                   Max.-Head-Change                        Max.-Flux-Residual
  Residual-Control   Outer-Iter.   Inner-Iter.     Column Row Layer    Max.-Head-Change    Column Row Layer    Max.-Flux-Residual            L2-New               L2-Old           Solver-Max-Delh
          0                 1           2            37   70     1       0.5524472447E+00      34  106    1       0.1103597113E+06      0.1919022829E+06      0.5165304100E+02      0.5524472447E+00
          0                 2           2            58   11     1       0.1526300180E+00      34  106    1      -0.1103625984E+05      0.1919061563E+05      0.1919022829E+06      0.1526300180E+00
          0                 3           2            58   11     1       0.1510458186E+00      34  106    1      -0.5518148653E+03      0.9596319419E+03      0.1919061563E+05      0.1510458186E+00

    ------------------------------------------------
       NWT REQUIRED            3 OUTER ITERATIONS 
       AND A TOTAL OF          6 INNER ITERATIONS.
    ------------------------------------------------

 OUTPUT CONTROL FOR STRESS PERIOD    1   TIME STEP   48
    SAVE HEAD FOR ALL LAYERS
    SAVE DRAWDOWN FOR ALL LAYERS
    SAVE BUDGET
    PRINT BUDGET
 UBDSV1 SAVING "         STORAGE" ON UNIT   9 AT TIME STEP 48, STRESS PERIOD   1
 UBDSV2 SAVING "   CONSTANT HEAD" ON UNIT   9 AT TIME STEP 48, STRESS PERIOD   1
 UBDSV1 SAVING "FLOW RIGHT FACE " ON UNIT   9 AT TIME STEP 48, STRESS PERIOD   1
 UBDSV1 SAVING "FLOW FRONT FACE " ON UNIT   9 AT TIME STEP 48, STRESS PERIOD   1
 UBDSV4 SAVING "   RIVER LEAKAGE" ON UNIT   9 AT TIME STEP 48, STRESS PERIOD   1
 UBDSV3 SAVING "        RECHARGE" ON UNIT   9 AT TIME STEP 48, STRESS PERIOD   1

 HEAD WILL BE SAVED ON UNIT   37 AT END OF TIME STEP   48, STRESS PERIOD    1

 DRAWDOWN WILL BE SAVED ON UNIT   38 AT END OF TIME STEP   48, STRESS PERIOD    1
1
  VOLUMETRIC BUDGET FOR ENTIRE MODEL AT END OF TIME STEP   48, STRESS PERIOD   1
  ------------------------------------------------------------------------------

     CUMULATIVE VOLUMES      L**3       RATES FOR THIS TIME STEP      L**3/T
     ------------------                 ------------------------

           IN:                                      IN:
           ---                                      ---
             STORAGE =    44938520.0000               STORAGE =      921184.5625
       CONSTANT HEAD =           0.0000         CONSTANT HEAD =           0.0000
       RIVER LEAKAGE =    94418952.0000         RIVER LEAKAGE =      706656.9375
            RECHARGE =        1010.1912              RECHARGE =       2.6169E-04

            TOTAL IN =   139358480.0000              TOTAL IN =     1627841.5000

          OUT:                                     OUT:
          ----                                     ----
             STORAGE =   139225856.0000               STORAGE =     1621994.0000
       CONSTANT HEAD =           0.0000         CONSTANT HEAD =           0.0000
       RIVER LEAKAGE =      150454.5312         RIVER LEAKAGE =        5974.2783
            RECHARGE =           0.0000              RECHARGE =           0.0000

           TOTAL OUT =   139376304.0000             TOTAL OUT =     1627968.2500

            IN - OUT =      -17824.0000              IN - OUT =        -126.7500

 PERCENT DISCREPANCY =          -0.01     PERCENT DISCREPANCY =          -0.01






         TIME SUMMARY AT END OF TIME STEP   48 IN STRESS PERIOD    1
                    SECONDS     MINUTES      HOURS       DAYS        YEARS
                    -----------------------------------------------------------
   TIME STEP LENGTH  86400.      1440.0      24.000      1.0000     2.73785E-03
 STRESS PERIOD TIME 4.14720E+06  69120.      1152.0      48.000     0.13142    
         TOTAL TIME 4.14720E+06  69120.      1152.0      48.000     0.13142    
1
 
 SOLVING FOR HEAD 
                                                   Max.-Head-Change                        Max.-Flux-Residual
  Residual-Control   Outer-Iter.   Inner-Iter.     Column Row Layer    Max.-Head-Change    Column Row Layer    Max.-Flux-Residual            L2-New               L2-Old           Solver-Max-Delh
          0                 1           2            58   12     1       0.2168543400E+00      34  106    1       0.1102772700E+06      0.1915608905E+06      0.4991149129E+02      0.2168543400E+00
          0                 2           2            58   11     1       0.1529963384E+00      34  106    1      -0.1102801522E+05      0.1915647669E+05      0.1915608905E+06      0.1529963384E+00
          0                 3           2            58   11     1       0.1513755592E+00      34  106    1      -0.5514026303E+03      0.9579283497E+03      0.1915647669E+05      0.1513755592E+00
          1                 3           0            58   11     1       0.1059628896E+00      22  115    1      -0.2419898404E+05      0.2419903539E+05      0.9579283497E+03      0.1513755592E+00
          2                 3           0            58   11     1       0.7417402148E-01      22  115    1      -0.1215041742E+05      0.1215466091E+05      0.2419903539E+05      0.1513755592E+00
          3                 3           0            58   11     1       0.5192181415E-01      22  115    1      -0.3716424379E+04      0.3751544859E+04      0.1215466091E+05      0.1513755592E+00
          0                 4           2            58   11     1       0.1508244686E+00      34  106    1      -0.3717261970E+03      0.6458670391E+03      0.3751544859E+04      0.1508244686E+00
          1                 4           0            58   11     1       0.1055771262E+00      22  115    1      -0.3795290411E+05      0.3795292054E+05      0.6458670391E+03      0.1508244686E+00
          2                 4           0            58   11     1       0.7390398711E-01      22  115    1      -0.2591081494E+05      0.2591172150E+05      0.3795292054E+05      0.1508244686E+00
          3                 4           0            58   11     1       0.5173279010E-01      22  115    1      -0.1748135612E+05      0.1748476798E+05      0.2591172150E+05      0.1508244686E+00
                                                   Max.-Head-Change                        Max.-Flux-Residual
  Residual-Control   Outer-Iter.   Inner-Iter.     Column Row Layer    Max.-Head-Change    Column Row Layer    Max.-Flux-Residual            L2-New               L2-Old           Solver-Max-Delh
          4                 4           0            58   11     1       0.3621295245E-01      22  115    1      -0.1158073674E+05      0.1158892302E+05      0.1748476798E+05      0.1508244686E+00
          5                 4           0            58   11     1       0.2534906628E-01      22  115    1      -0.7450304072E+04      0.7466970159E+04      0.1158892302E+05      0.1508244686E+00
          6                 4           0            58   11     1       0.1774434610E-01      22  115    1      -0.4559001659E+04      0.4591199003E+04      0.7466970159E+04      0.1508244686E+00
          7                 4           0            58   11     1       0.1242104206E-01      22  115    1      -0.2535090203E+04      0.2599195608E+04      0.4591199003E+04      0.1508244686E+00
          8                 4           0            58   11     1       0.8694729291E-02      22  115    1      -0.1118352305E+04      0.1266946025E+04      0.2599195608E+04      0.1508244686E+00
          0                 5           2            58   11     1       0.1507321819E+00      34  106    1      -0.3513679589E+03      0.6234968335E+03      0.1266946025E+04      0.1507321819E+00

    ------------------------------------------------
       NWT REQUIRED            5 OUTER ITERATIONS 
       AND A TOTAL OF         10 INNER ITERATIONS.
    ------------------------------------------------

 OUTPUT CONTROL FOR STRESS PERIOD    1   TIME STEP   49
    SAVE HEAD FOR ALL LAYERS
    SAVE DRAWDOWN FOR ALL LAYERS
    SAVE BUDGET
    PRINT BUDGET
 UBDSV1 SAVING "         STORAGE" ON UNIT   9 AT TIME STEP 49, STRESS PERIOD   1
 UBDSV2 SAVING "   CONSTANT HEAD" ON UNIT   9 AT TIME STEP 49, STRESS PERIOD   1
 UBDSV1 SAVING "FLOW RIGHT FACE " ON UNIT   9 AT TIME STEP 49, STRESS PERIOD   1
 UBDSV1 SAVING "FLOW FRONT FACE " ON UNIT   9 AT TIME STEP 49, STRESS PERIOD   1
 UBDSV4 SAVING "   RIVER LEAKAGE" ON UNIT   9 AT TIME STEP 49, STRESS PERIOD   1
 UBDSV3 SAVING "        RECHARGE" ON UNIT   9 AT TIME STEP 49, STRESS PERIOD   1

 HEAD WILL BE SAVED ON UNIT   37 AT END OF TIME STEP   49, STRESS PERIOD    1

 DRAWDOWN WILL BE SAVED ON UNIT   38 AT END OF TIME STEP   49, STRESS PERIOD    1
1
  VOLUMETRIC BUDGET FOR ENTIRE MODEL AT END OF TIME STEP   49, STRESS PERIOD   1
  ------------------------------------------------------------------------------

     CUMULATIVE VOLUMES      L**3       RATES FOR THIS TIME STEP      L**3/T
     ------------------                 ------------------------

           IN:                                      IN:
           ---                                      ---
             STORAGE =    45859024.0000               STORAGE =      920503.1250
       CONSTANT HEAD =           0.0000         CONSTANT HEAD =           0.0000
       RIVER LEAKAGE =    95125480.0000         RIVER LEAKAGE =      706531.0625
            RECHARGE =        1010.1913              RECHARGE =       2.0813E-04

            TOTAL IN =   140985504.0000              TOTAL IN =     1627034.2500

          OUT:                                     OUT:
          ----                                     ----
             STORAGE =   140846992.0000               STORAGE =     1621130.8750
       CONSTANT HEAD =           0.0000         CONSTANT HEAD =           0.0000
       RIVER LEAKAGE =      156431.0312         RIVER LEAKAGE =        5976.4990
            RECHARGE =           0.0000              RECHARGE =           0.0000

           TOTAL OUT =   141003424.0000             TOTAL OUT =     1627107.3750

            IN - OUT =      -17920.0000              IN - OUT =         -73.1250

 PERCENT DISCREPANCY =          -0.01     PERCENT DISCREPANCY =          -0.00






         TIME SUMMARY AT END OF TIME STEP   49 IN STRESS PERIOD    1
                    SECONDS     MINUTES      HOURS       DAYS        YEARS
                    -----------------------------------------------------------
   TIME STEP LENGTH  86400.      1440.0      24.000      1.0000     2.73785E-03
 STRESS PERIOD TIME 4.23360E+06  70560.      1176.0      49.000     0.13415    
         TOTAL TIME 4.23360E+06  70560.      1176.0      49.000     0.13415    
1
 
 SOLVING FOR HEAD 
                                                   Max.-Head-Change                        Max.-Flux-Residual
  Residual-Control   Outer-Iter.   Inner-Iter.     Column Row Layer    Max.-Head-Change    Column Row Layer    Max.-Flux-Residual            L2-New               L2-Old           Solver-Max-Delh
          0                 1           2            58   12     1       0.2168501378E+00      34  106    1       0.1101946740E+06      0.1914517716E+06      0.3469908411E+02      0.2168501378E+00
          0                 2           2            58   11     1       0.1525964349E+00      34  106    1      -0.1101975513E+05      0.1914556429E+05      0.1914517716E+06      0.1525964349E+00
          0                 3           2            58   11     1       0.1509472301E+00      34  106    1      -0.5509896222E+03      0.9573786527E+03      0.1914556429E+05      0.1509472301E+00

    ------------------------------------------------
       NWT REQUIRED            3 OUTER ITERATIONS 
       AND A TOTAL OF          6 INNER ITERATIONS.
    ------------------------------------------------

 OUTPUT CONTROL FOR STRESS PERIOD    1   TIME STEP   50
    SAVE HEAD FOR ALL LAYERS
    SAVE DRAWDOWN FOR ALL LAYERS
    SAVE BUDGET
    PRINT BUDGET
 UBDSV1 SAVING "         STORAGE" ON UNIT   9 AT TIME STEP 50, STRESS PERIOD   1
 UBDSV2 SAVING "   CONSTANT HEAD" ON UNIT   9 AT TIME STEP 50, STRESS PERIOD   1
 UBDSV1 SAVING "FLOW RIGHT FACE " ON UNIT   9 AT TIME STEP 50, STRESS PERIOD   1
 UBDSV1 SAVING "FLOW FRONT FACE " ON UNIT   9 AT TIME STEP 50, STRESS PERIOD   1
 UBDSV4 SAVING "   RIVER LEAKAGE" ON UNIT   9 AT TIME STEP 50, STRESS PERIOD   1
 UBDSV3 SAVING "        RECHARGE" ON UNIT   9 AT TIME STEP 50, STRESS PERIOD   1

 HEAD WILL BE SAVED ON UNIT   37 AT END OF TIME STEP   50, STRESS PERIOD    1

 DRAWDOWN WILL BE SAVED ON UNIT   38 AT END OF TIME STEP   50, STRESS PERIOD    1
1
  VOLUMETRIC BUDGET FOR ENTIRE MODEL AT END OF TIME STEP   50, STRESS PERIOD   1
  ------------------------------------------------------------------------------

     CUMULATIVE VOLUMES      L**3       RATES FOR THIS TIME STEP      L**3/T
     ------------------                 ------------------------

           IN:                                      IN:
           ---                                      ---
             STORAGE =    46779012.0000               STORAGE =      919989.3125
       CONSTANT HEAD =           0.0000         CONSTANT HEAD =           0.0000
       RIVER LEAKAGE =    95832008.0000         RIVER LEAKAGE =      706526.1875
            RECHARGE =        1010.1915              RECHARGE =       1.6558E-04

            TOTAL IN =   142612032.0000              TOTAL IN =     1626515.5000

          OUT:                                     OUT:
          ----                                     ----
             STORAGE =   142467648.0000               STORAGE =     1620663.3750
       CONSTANT HEAD =           0.0000         CONSTANT HEAD =           0.0000
       RIVER LEAKAGE =      162409.7500         RIVER LEAKAGE =        5978.7207
            RECHARGE =           0.0000              RECHARGE =           0.0000

           TOTAL OUT =   142630064.0000             TOTAL OUT =     1626642.1250

            IN - OUT =      -18032.0000              IN - OUT =        -126.6250

 PERCENT DISCREPANCY =          -0.01     PERCENT DISCREPANCY =          -0.01






         TIME SUMMARY AT END OF TIME STEP   50 IN STRESS PERIOD    1
                    SECONDS     MINUTES      HOURS       DAYS        YEARS
                    -----------------------------------------------------------
   TIME STEP LENGTH  86400.      1440.0      24.000      1.0000     2.73785E-03
 STRESS PERIOD TIME 4.32000E+06  72000.      1200.0      50.000     0.13689    
         TOTAL TIME 4.32000E+06  72000.      1200.0      50.000     0.13689    
1
 
 SOLVING FOR HEAD 
                                                   Max.-Head-Change                        Max.-Flux-Residual
  Residual-Control   Outer-Iter.   Inner-Iter.     Column Row Layer    Max.-Head-Change    Column Row Layer    Max.-Flux-Residual            L2-New               L2-Old           Solver-Max-Delh
          0                 1           2            58   12     1       0.2168455774E+00      34  106    1       0.1101118984E+06      0.1913426216E+06      0.4978503744E+02      0.2168455774E+00
          0                 2           2            61   50     1       0.7674884371E+02      34  106    1      -0.1101147708E+05      0.2055511577E+05      0.1913426216E+06      0.7674884371E+02
          1                 2           0            61   50     1       0.5372418968E+02      61   50    1      -0.6299970343E+06      0.6299977587E+06      0.2055511577E+05      0.7674884371E+02
          2                 2           0            61   50     1       0.3760693214E+02      61   50    1      -0.4386895434E+06      0.4387362339E+06      0.6299977587E+06      0.7674884371E+02
          3                 2           0            61   50     1       0.2632485205E+02      61   50    1      -0.3047743021E+06      0.3049453480E+06      0.4387362339E+06      0.7674884371E+02
          4                 2           0            61   50     1       0.1842739612E+02      61   50    1      -0.2110336348E+06      0.2114263472E+06      0.3049453480E+06      0.7674884371E+02
          5                 2           0            61   50     1       0.1289917706E+02      61   50    1      -0.1454151688E+06      0.1461611407E+06      0.2114263472E+06      0.7674884371E+02
          6                 2           0            61   50     1       0.9029423791E+01      61   50    1      -0.9948224338E+05      0.1007695260E+06      0.1461611407E+06      0.7674884371E+02
          7                 2           0            61   50     1       0.6320596546E+01      61   50    1      -0.6732919613E+05      0.6943505158E+05      0.1007695260E+06      0.7674884371E+02
          8                 2           0            61   50     1       0.4424417507E+01      61   50    1      -0.4482206344E+05      0.4815783820E+05      0.6943505158E+05      0.7674884371E+02
                                                   Max.-Head-Change                        Max.-Flux-Residual
  Residual-Control   Outer-Iter.   Inner-Iter.     Column Row Layer    Max.-Head-Change    Column Row Layer    Max.-Flux-Residual            L2-New               L2-Old           Solver-Max-Delh
          9                 2           0            61   50     1       0.3097092202E+01      61   50    1      -0.2906707083E+05      0.3422062228E+05      0.4815783820E+05      0.7674884371E+02
         10                 2           0            61   50     1       0.2167964505E+01      61   50    1      -0.1803857619E+05      0.2574846368E+05      0.3422062228E+05      0.7674884371E+02
          0                 3           2            61   50     1      -0.1179795667E+01      34  106    1      -0.1071598250E+05      0.2126476607E+05      0.2574846368E+05     -0.1179795667E+01
          0                 4           2            58   11     1       0.1509958228E+00      34  106    1      -0.5356937218E+03      0.1063168484E+04      0.2126476607E+05      0.1509958228E+00

    ------------------------------------------------
       NWT REQUIRED            4 OUTER ITERATIONS 
       AND A TOTAL OF          8 INNER ITERATIONS.
    ------------------------------------------------

 OUTPUT CONTROL FOR STRESS PERIOD    1   TIME STEP   51
    SAVE HEAD FOR ALL LAYERS
    SAVE DRAWDOWN FOR ALL LAYERS
    SAVE BUDGET
    PRINT BUDGET
 UBDSV1 SAVING "         STORAGE" ON UNIT   9 AT TIME STEP 51, STRESS PERIOD   1
 UBDSV2 SAVING "   CONSTANT HEAD" ON UNIT   9 AT TIME STEP 51, STRESS PERIOD   1
 UBDSV1 SAVING "FLOW RIGHT FACE " ON UNIT   9 AT TIME STEP 51, STRESS PERIOD   1
 UBDSV1 SAVING "FLOW FRONT FACE " ON UNIT   9 AT TIME STEP 51, STRESS PERIOD   1
 UBDSV4 SAVING "   RIVER LEAKAGE" ON UNIT   9 AT TIME STEP 51, STRESS PERIOD   1
 UBDSV3 SAVING "        RECHARGE" ON UNIT   9 AT TIME STEP 51, STRESS PERIOD   1

 HEAD WILL BE SAVED ON UNIT   37 AT END OF TIME STEP   51, STRESS PERIOD    1

 DRAWDOWN WILL BE SAVED ON UNIT   38 AT END OF TIME STEP   51, STRESS PERIOD    1
1
  VOLUMETRIC BUDGET FOR ENTIRE MODEL AT END OF TIME STEP   51, STRESS PERIOD   1
  ------------------------------------------------------------------------------

     CUMULATIVE VOLUMES      L**3       RATES FOR THIS TIME STEP      L**3/T
     ------------------                 ------------------------

           IN:                                      IN:
           ---                                      ---
             STORAGE =    47698400.0000               STORAGE =      919386.3125
       CONSTANT HEAD =           0.0000         CONSTANT HEAD =           0.0000
       RIVER LEAKAGE =    96531024.0000         RIVER LEAKAGE =      699017.3750
            RECHARGE =        1010.1917              RECHARGE =       1.3177E-04

            TOTAL IN =   144230432.0000              TOTAL IN =     1618403.7500

          OUT:                                     OUT:
          ----                                     ----
             STORAGE =   144080208.0000               STORAGE =     1612567.0000
       CONSTANT HEAD =           0.0000         CONSTANT HEAD =           0.0000
       RIVER LEAKAGE =      168390.7188         RIVER LEAKAGE =        5980.9707
            RECHARGE =           0.0000              RECHARGE =           0.0000

           TOTAL OUT =   144248592.0000             TOTAL OUT =     1618548.0000

            IN - OUT =      -18160.0000              IN - OUT =        -144.2500

 PERCENT DISCREPANCY =          -0.01     PERCENT DISCREPANCY =          -0.01






         TIME SUMMARY AT END OF TIME STEP   51 IN STRESS PERIOD    1
                    SECONDS     MINUTES      HOURS       DAYS        YEARS
                    -----------------------------------------------------------
   TIME STEP LENGTH  86400.      1440.0      24.000      1.0000     2.73785E-03
 STRESS PERIOD TIME 4.40640E+06  73440.      1224.0      51.000     0.13963    
         TOTAL TIME 4.40640E+06  73440.      1224.0      51.000     0.13963    
1
 
 SOLVING FOR HEAD 
                                                   Max.-Head-Change                        Max.-Flux-Residual
  Residual-Control   Outer-Iter.   Inner-Iter.     Column Row Layer    Max.-Head-Change    Column Row Layer    Max.-Flux-Residual            L2-New               L2-Old           Solver-Max-Delh
          0                 1           2            61   50     1       0.3879619174E+00      34  106    1       0.1100289624E+06      0.1909709640E+06      0.5493161282E+02      0.3879619174E+00
          0                 2           2            58   11     1       0.1526926087E+00      34  106    1      -0.1100318299E+05      0.1909747652E+05      0.1909709640E+06      0.1526926087E+00
          0                 3           2            58   11     1       0.1509770182E+00      34  106    1      -0.5501610085E+03      0.9549803579E+03      0.1909747652E+05      0.1509770182E+00
          1                 3           0            58   11     1       0.1056839110E+00      35   84    1      -0.4674466645E+05      0.4674469236E+05      0.9549803579E+03      0.1509770182E+00
          2                 3           0            58   11     1       0.7397873641E-01      35   84    1      -0.2000485901E+05      0.2000741955E+05      0.4674469236E+05      0.1509770182E+00
          3                 3           0            58   11     1       0.5178511460E-01      35   84    1      -0.1287006877E+04      0.1384559256E+04      0.2000741955E+05      0.1509770182E+00
          0                 4           2            58   11     1       0.1503941335E+00      34  106    1      -0.3708891619E+03      0.6438813437E+03      0.1384559256E+04      0.1503941335E+00
          1                 4           0            58   11     1       0.1052758916E+00      35   84    1      -0.7724801977E+05      0.7724802752E+05      0.6438813437E+03      0.1503941335E+00
          2                 4           0            58   11     1       0.7369312289E-01      35   84    1      -0.5052894285E+05      0.5052940437E+05      0.7724802752E+05      0.1503941335E+00
          3                 4           0            58   11     1       0.5158518515E-01      35   84    1      -0.3182560207E+05      0.3182746393E+05      0.5052940437E+05      0.1503941335E+00
                                                   Max.-Head-Change                        Max.-Flux-Residual
  Residual-Control   Outer-Iter.   Inner-Iter.     Column Row Layer    Max.-Head-Change    Column Row Layer    Max.-Flux-Residual            L2-New               L2-Old           Solver-Max-Delh
          4                 4           0            58   11     1       0.3610962899E-01      35   84    1      -0.1873326999E+05      0.1873829927E+05      0.3182746393E+05      0.1503941335E+00
          5                 4           0            58   11     1       0.2527673986E-01      35   84    1      -0.9568640748E+04      0.9581540549E+04      0.1873829927E+05      0.1503941335E+00
          6                 4           0            58   11     1       0.1769371760E-01      35   84    1      -0.3153401888E+04      0.3199483586E+04      0.9581540549E+04      0.1503941335E+00
          0                 5           2            58   11     1       0.1501949718E+00      34  106    1      -0.3294352903E+03      0.5719522632E+03      0.3199483586E+04      0.1501949718E+00
          1                 5           0            58   11     1       0.1051364784E+00      35   84    1      -0.8770255431E+05      0.8770255995E+05      0.5719522632E+03      0.1501949718E+00
          2                 5           0            58   11     1       0.7359553366E-01      35   84    1      -0.6099058264E+05      0.6099088457E+05      0.8770255995E+05      0.1501949718E+00
          3                 5           0            58   11     1       0.5151687269E-01      35   84    1      -0.4229221552E+05      0.4229332127E+05      0.6099088457E+05      0.1501949718E+00
          4                 5           0            58   11     1       0.3606181027E-01      35   84    1      -0.2920336500E+05      0.2920591098E+05      0.4229332127E+05      0.1501949718E+00
          5                 5           0            58   11     1       0.2524326676E-01      35   84    1      -0.2004117284E+05      0.2004603534E+05      0.2920591098E+05      0.1501949718E+00
          6                 5           0            58   11     1       0.1767028643E-01      35   84    1      -0.1362763995E+05      0.1363611247E+05      0.2004603534E+05      0.1501949718E+00
                                                   Max.-Head-Change                        Max.-Flux-Residual
  Residual-Control   Outer-Iter.   Inner-Iter.     Column Row Layer    Max.-Head-Change    Column Row Layer    Max.-Flux-Residual            L2-New               L2-Old           Solver-Max-Delh
          7                 5           0            58   11     1       0.1236920029E-01      35   84    1      -0.9138167727E+04      0.9152276921E+04      0.1363611247E+05      0.1501949718E+00
          8                 5           0            58   11     1       0.8658440055E-02      35   84    1      -0.5995537587E+04      0.6018669014E+04      0.9152276921E+04      0.1501949718E+00
          9                 5           0            58   11     1       0.6060907935E-02      35   84    1      -0.3795696703E+04      0.3833998740E+04      0.6018669014E+04      0.1501949718E+00
         10                 5           0            58   11     1       0.4242635482E-02      35   84    1      -0.2255808197E+04      0.2321884338E+04      0.3833998740E+04      0.1501949718E+00
         11                 5           0            58   11     1       0.2969844787E-02      35   84    1      -0.1177886303E+04      0.1302753936E+04      0.2321884338E+04      0.1501949718E+00
         12                 5           0            58   11     1       0.2078891316E-02      35   84    1      -0.4233410109E+03      0.7029321084E+03      0.1302753936E+04      0.1501949718E+00
          0                 6           2            58   11     1       0.1501715715E+00      34  106    1      -0.3251033364E+03      0.5644359177E+03      0.7029321084E+03      0.1501715715E+00
          1                 6           0            58   11     1       0.1051200983E+00      35   84    1      -0.8893219246E+05      0.8893219790E+05      0.5644359177E+03      0.1501715715E+00
          2                 6           0            58   11     1       0.7358406754E-01      35   84    1      -0.6222105649E+05      0.6222134475E+05      0.8893219790E+05      0.1501715715E+00
          3                 6           0            58   11     1       0.5150884640E-01      35   84    1      -0.4352327436E+05      0.4352432079E+05      0.6222134475E+05      0.1501715715E+00
                                                   Max.-Head-Change                        Max.-Flux-Residual
  Residual-Control   Outer-Iter.   Inner-Iter.     Column Row Layer    Max.-Head-Change    Column Row Layer    Max.-Flux-Residual            L2-New               L2-Old           Solver-Max-Delh
          4                 6           0            58   11     1       0.3605619187E-01      35   84    1      -0.3043483334E+05      0.3043721253E+05      0.4352432079E+05      0.1501715715E+00
          5                 6           0            58   11     1       0.2523933388E-01      35   84    1      -0.2127292783E+05      0.2127738922E+05      0.3043721253E+05      0.1501715715E+00
          6                 6           0            58   11     1       0.1766753341E-01      35   84    1      -0.1485959559E+05      0.1486716319E+05      0.2127738922E+05      0.1501715715E+00
          7                 6           0            58   11     1       0.1236727318E-01      35   84    1      -0.1037026382E+05      0.1038237427E+05      0.1486716319E+05      0.1501715715E+00
          8                 6           0            58   11     1       0.8657091078E-02      35   84    1      -0.7227732004E+04      0.7246430686E+04      0.1038237427E+05      0.1501715715E+00
          9                 6           0            58   11     1       0.6059963651E-02      35   84    1      -0.5027959944E+04      0.5056182541E+04      0.7246430686E+04      0.1501715715E+00
         10                 6           0            58   11     1       0.4241974484E-02      35   84    1      -0.3488119614E+04      0.3530092770E+04      0.5056182541E+04      0.1501715715E+00
         11                 6           0            58   11     1       0.2969382088E-02      35   84    1      -0.2410231444E+04      0.2472018918E+04      0.3530092770E+04      0.1501715715E+00
         12                 6           0            58   11     1       0.2078567426E-02      35   84    1      -0.1655709759E+04      0.1745865580E+04      0.2472018918E+04      0.1501715715E+00
         13                 6           0            58   11     1       0.1454997174E-02      35   84    1      -0.1127544598E+04      0.1257600945E+04      0.1745865580E+04      0.1501715715E+00
                                                   Max.-Head-Change                        Max.-Flux-Residual
  Residual-Control   Outer-Iter.   Inner-Iter.     Column Row Layer    Max.-Head-Change    Column Row Layer    Max.-Flux-Residual            L2-New               L2-Old           Solver-Max-Delh
         14                 6           0            58   11     1       0.1018498004E-02      35   84    1      -0.7578289968E+03      0.9418026275E+03      0.1257600945E+04      0.1501715715E+00
         15                 6           0            58   11     1       0.7129485907E-03      35   84    1      -0.4990280829E+03      0.7506405165E+03      0.9418026275E+03      0.1501715715E+00
         16                 6           0            58   11     1       0.4990640050E-03      34  106    1      -0.3236369992E+03      0.6455200158E+03      0.7506405165E+03      0.1501715715E+00
          0                 7           2            58   11     1       0.1501659540E+00      34  106    1      -0.3240769005E+03      0.5941521367E+03      0.6455200158E+03      0.1501659540E+00

    ------------------------------------------------
       NWT REQUIRED            7 OUTER ITERATIONS 
       AND A TOTAL OF         14 INNER ITERATIONS.
    ------------------------------------------------

 OUTPUT CONTROL FOR STRESS PERIOD    1   TIME STEP   52
    SAVE HEAD FOR ALL LAYERS
    SAVE DRAWDOWN FOR ALL LAYERS
    SAVE BUDGET
    PRINT BUDGET
 UBDSV1 SAVING "         STORAGE" ON UNIT   9 AT TIME STEP 52, STRESS PERIOD   1
 UBDSV2 SAVING "   CONSTANT HEAD" ON UNIT   9 AT TIME STEP 52, STRESS PERIOD   1
 UBDSV1 SAVING "FLOW RIGHT FACE " ON UNIT   9 AT TIME STEP 52, STRESS PERIOD   1
 UBDSV1 SAVING "FLOW FRONT FACE " ON UNIT   9 AT TIME STEP 52, STRESS PERIOD   1
 UBDSV4 SAVING "   RIVER LEAKAGE" ON UNIT   9 AT TIME STEP 52, STRESS PERIOD   1
 UBDSV3 SAVING "        RECHARGE" ON UNIT   9 AT TIME STEP 52, STRESS PERIOD   1

 HEAD WILL BE SAVED ON UNIT   37 AT END OF TIME STEP   52, STRESS PERIOD    1

 DRAWDOWN WILL BE SAVED ON UNIT   38 AT END OF TIME STEP   52, STRESS PERIOD    1
1
  VOLUMETRIC BUDGET FOR ENTIRE MODEL AT END OF TIME STEP   52, STRESS PERIOD   1
  ------------------------------------------------------------------------------

     CUMULATIVE VOLUMES      L**3       RATES FOR THIS TIME STEP      L**3/T
     ------------------                 ------------------------

           IN:                                      IN:
           ---                                      ---
             STORAGE =    48617104.0000               STORAGE =      918702.0000
       CONSTANT HEAD =           0.0000         CONSTANT HEAD =           0.0000
       RIVER LEAKAGE =    97227144.0000         RIVER LEAKAGE =      696121.6250
            RECHARGE =        1010.1918              RECHARGE =       1.0489E-04

            TOTAL IN =   145845248.0000              TOTAL IN =     1614823.6250

          OUT:                                     OUT:
          ----                                     ----
             STORAGE =   145689136.0000               STORAGE =     1608921.5000
       CONSTANT HEAD =           0.0000         CONSTANT HEAD =           0.0000
       RIVER LEAKAGE =      174373.9062         RIVER LEAKAGE =        5983.1938
            RECHARGE =           0.0000              RECHARGE =           0.0000

           TOTAL OUT =   145863504.0000             TOTAL OUT =     1614904.7500

            IN - OUT =      -18256.0000              IN - OUT =         -81.1250

 PERCENT DISCREPANCY =          -0.01     PERCENT DISCREPANCY =          -0.01






         TIME SUMMARY AT END OF TIME STEP   52 IN STRESS PERIOD    1
                    SECONDS     MINUTES      HOURS       DAYS        YEARS
                    -----------------------------------------------------------
   TIME STEP LENGTH  86400.      1440.0      24.000      1.0000     2.73785E-03
 STRESS PERIOD TIME 4.49280E+06  74880.      1248.0      52.000     0.14237    
         TOTAL TIME 4.49280E+06  74880.      1248.0      52.000     0.14237    
1
 
 SOLVING FOR HEAD 
                                                   Max.-Head-Change                        Max.-Flux-Residual
  Residual-Control   Outer-Iter.   Inner-Iter.     Column Row Layer    Max.-Head-Change    Column Row Layer    Max.-Flux-Residual            L2-New               L2-Old           Solver-Max-Delh
          0                 1           2            58   12     1       0.2168372081E+00      34  106    1       0.1099458558E+06      0.1908391287E+06      0.3695567600E+02      0.2168372081E+00
          0                 2           2            58   11     1       0.1517866868E+00      34  106    1      -0.1099487183E+05      0.1908429112E+05      0.1908391287E+06      0.1517866868E+00
          0                 3           2            58   11     1       0.1500488355E+00      37   31    1      -0.1921609018E+04      0.2145518063E+04      0.1908429112E+05      0.1500488355E+00

    ------------------------------------------------
       NWT REQUIRED            3 OUTER ITERATIONS 
       AND A TOTAL OF          6 INNER ITERATIONS.
    ------------------------------------------------

 OUTPUT CONTROL FOR STRESS PERIOD    1   TIME STEP   53
    SAVE HEAD FOR ALL LAYERS
    SAVE DRAWDOWN FOR ALL LAYERS
    SAVE BUDGET
    PRINT BUDGET
 UBDSV1 SAVING "         STORAGE" ON UNIT   9 AT TIME STEP 53, STRESS PERIOD   1
 UBDSV2 SAVING "   CONSTANT HEAD" ON UNIT   9 AT TIME STEP 53, STRESS PERIOD   1
 UBDSV1 SAVING "FLOW RIGHT FACE " ON UNIT   9 AT TIME STEP 53, STRESS PERIOD   1
 UBDSV1 SAVING "FLOW FRONT FACE " ON UNIT   9 AT TIME STEP 53, STRESS PERIOD   1
 UBDSV4 SAVING "   RIVER LEAKAGE" ON UNIT   9 AT TIME STEP 53, STRESS PERIOD   1
 UBDSV3 SAVING "        RECHARGE" ON UNIT   9 AT TIME STEP 53, STRESS PERIOD   1

 HEAD WILL BE SAVED ON UNIT   37 AT END OF TIME STEP   53, STRESS PERIOD    1

 DRAWDOWN WILL BE SAVED ON UNIT   38 AT END OF TIME STEP   53, STRESS PERIOD    1
1
  VOLUMETRIC BUDGET FOR ENTIRE MODEL AT END OF TIME STEP   53, STRESS PERIOD   1
  ------------------------------------------------------------------------------

     CUMULATIVE VOLUMES      L**3       RATES FOR THIS TIME STEP      L**3/T
     ------------------                 ------------------------

           IN:                                      IN:
           ---                                      ---
             STORAGE =    49535304.0000               STORAGE =      918201.8125
       CONSTANT HEAD =           0.0000         CONSTANT HEAD =           0.0000
       RIVER LEAKAGE =    97923224.0000         RIVER LEAKAGE =      696081.0625
            RECHARGE =        1010.1918              RECHARGE =       8.3508E-05

            TOTAL IN =   147459536.0000              TOTAL IN =     1614282.8750

          OUT:                                     OUT:
          ----                                     ----
             STORAGE =   147297664.0000               STORAGE =     1608524.1250
       CONSTANT HEAD =           0.0000         CONSTANT HEAD =           0.0000
       RIVER LEAKAGE =      180359.3281         RIVER LEAKAGE =        5985.4175
            RECHARGE =           0.0000              RECHARGE =           0.0000

           TOTAL OUT =   147478016.0000             TOTAL OUT =     1614509.5000

            IN - OUT =      -18480.0000              IN - OUT =        -226.6250

 PERCENT DISCREPANCY =          -0.01     PERCENT DISCREPANCY =          -0.01






         TIME SUMMARY AT END OF TIME STEP   53 IN STRESS PERIOD    1
                    SECONDS     MINUTES      HOURS       DAYS        YEARS
                    -----------------------------------------------------------
   TIME STEP LENGTH  86400.      1440.0      24.000      1.0000     2.73785E-03
 STRESS PERIOD TIME 4.57920E+06  76320.      1272.0      53.000     0.14511    
         TOTAL TIME 4.57920E+06  76320.      1272.0      53.000     0.14511    
1
 
 SOLVING FOR HEAD 
                                                   Max.-Head-Change                        Max.-Flux-Residual
  Residual-Control   Outer-Iter.   Inner-Iter.     Column Row Layer    Max.-Head-Change    Column Row Layer    Max.-Flux-Residual            L2-New               L2-Old           Solver-Max-Delh
          0                 1           2            58   12     1       0.2168326973E+00      34  106    1       0.1098625803E+06      0.1907296776E+06      0.1079123763E+03      0.2168326973E+00
          0                 2           2            58   11     1       0.1515925568E+00      34  106    1      -0.1098654379E+05      0.1907334577E+05      0.1907296776E+06      0.1515925568E+00
          0                 3           2            58   11     1       0.1498245280E+00      28  109    1      -0.4503098585E+04      0.4602990660E+04      0.1907334577E+05      0.1498245280E+00

    ------------------------------------------------
       NWT REQUIRED            3 OUTER ITERATIONS 
       AND A TOTAL OF          6 INNER ITERATIONS.
    ------------------------------------------------

 OUTPUT CONTROL FOR STRESS PERIOD    1   TIME STEP   54
    SAVE HEAD FOR ALL LAYERS
    SAVE DRAWDOWN FOR ALL LAYERS
    SAVE BUDGET
    PRINT BUDGET
 UBDSV1 SAVING "         STORAGE" ON UNIT   9 AT TIME STEP 54, STRESS PERIOD   1
 UBDSV2 SAVING "   CONSTANT HEAD" ON UNIT   9 AT TIME STEP 54, STRESS PERIOD   1
 UBDSV1 SAVING "FLOW RIGHT FACE " ON UNIT   9 AT TIME STEP 54, STRESS PERIOD   1
 UBDSV1 SAVING "FLOW FRONT FACE " ON UNIT   9 AT TIME STEP 54, STRESS PERIOD   1
 UBDSV4 SAVING "   RIVER LEAKAGE" ON UNIT   9 AT TIME STEP 54, STRESS PERIOD   1
 UBDSV3 SAVING "        RECHARGE" ON UNIT   9 AT TIME STEP 54, STRESS PERIOD   1

 HEAD WILL BE SAVED ON UNIT   37 AT END OF TIME STEP   54, STRESS PERIOD    1

 DRAWDOWN WILL BE SAVED ON UNIT   38 AT END OF TIME STEP   54, STRESS PERIOD    1
1
  VOLUMETRIC BUDGET FOR ENTIRE MODEL AT END OF TIME STEP   54, STRESS PERIOD   1
  ------------------------------------------------------------------------------

     CUMULATIVE VOLUMES      L**3       RATES FOR THIS TIME STEP      L**3/T
     ------------------                 ------------------------

           IN:                                      IN:
           ---                                      ---
             STORAGE =    50452912.0000               STORAGE =      917607.6875
       CONSTANT HEAD =           0.0000         CONSTANT HEAD =           0.0000
       RIVER LEAKAGE =    98619304.0000         RIVER LEAKAGE =      696077.4375
            RECHARGE =        1010.1919              RECHARGE =       6.6502E-05

            TOTAL IN =   149073216.0000              TOTAL IN =     1613685.1250

          OUT:                                     OUT:
          ----                                     ----
             STORAGE =   148905712.0000               STORAGE =     1608053.0000
       CONSTANT HEAD =           0.0000         CONSTANT HEAD =           0.0000
       RIVER LEAKAGE =      186347.0000         RIVER LEAKAGE =        5987.6699
            RECHARGE =           0.0000              RECHARGE =           0.0000

           TOTAL OUT =   149092064.0000             TOTAL OUT =     1614040.6250

            IN - OUT =      -18848.0000              IN - OUT =        -355.5000

 PERCENT DISCREPANCY =          -0.01     PERCENT DISCREPANCY =          -0.02






         TIME SUMMARY AT END OF TIME STEP   54 IN STRESS PERIOD    1
                    SECONDS     MINUTES      HOURS       DAYS        YEARS
                    -----------------------------------------------------------
   TIME STEP LENGTH  86400.      1440.0      24.000      1.0000     2.73785E-03
 STRESS PERIOD TIME 4.66560E+06  77760.      1296.0      54.000     0.14784    
         TOTAL TIME 4.66560E+06  77760.      1296.0      54.000     0.14784    
1
 
 SOLVING FOR HEAD 
                                                   Max.-Head-Change                        Max.-Flux-Residual
  Residual-Control   Outer-Iter.   Inner-Iter.     Column Row Layer    Max.-Head-Change    Column Row Layer    Max.-Flux-Residual            L2-New               L2-Old           Solver-Max-Delh
          0                 1           2            58   12     1       0.2168284910E+00      34  106    1       0.1097791466E+06      0.1906202109E+06      0.2304539063E+03      0.2168284910E+00
          0                 2           2            58   11     1       0.1512945579E+00      34  106    1      -0.1097819993E+05      0.1906239887E+05      0.1906202109E+06      0.1512945579E+00
          0                 3           2            58   11     1       0.1494976833E+00      34  106    1      -0.5489118450E+03      0.9531980420E+03      0.1906239887E+05      0.1494976833E+00

    ------------------------------------------------
       NWT REQUIRED            3 OUTER ITERATIONS 
       AND A TOTAL OF          6 INNER ITERATIONS.
    ------------------------------------------------

 OUTPUT CONTROL FOR STRESS PERIOD    1   TIME STEP   55
    SAVE HEAD FOR ALL LAYERS
    SAVE DRAWDOWN FOR ALL LAYERS
    SAVE BUDGET
    PRINT BUDGET
 UBDSV1 SAVING "         STORAGE" ON UNIT   9 AT TIME STEP 55, STRESS PERIOD   1
 UBDSV2 SAVING "   CONSTANT HEAD" ON UNIT   9 AT TIME STEP 55, STRESS PERIOD   1
 UBDSV1 SAVING "FLOW RIGHT FACE " ON UNIT   9 AT TIME STEP 55, STRESS PERIOD   1
 UBDSV1 SAVING "FLOW FRONT FACE " ON UNIT   9 AT TIME STEP 55, STRESS PERIOD   1
 UBDSV4 SAVING "   RIVER LEAKAGE" ON UNIT   9 AT TIME STEP 55, STRESS PERIOD   1
 UBDSV3 SAVING "        RECHARGE" ON UNIT   9 AT TIME STEP 55, STRESS PERIOD   1

 HEAD WILL BE SAVED ON UNIT   37 AT END OF TIME STEP   55, STRESS PERIOD    1

 DRAWDOWN WILL BE SAVED ON UNIT   38 AT END OF TIME STEP   55, STRESS PERIOD    1
1
  VOLUMETRIC BUDGET FOR ENTIRE MODEL AT END OF TIME STEP   55, STRESS PERIOD   1
  ------------------------------------------------------------------------------

     CUMULATIVE VOLUMES      L**3       RATES FOR THIS TIME STEP      L**3/T
     ------------------                 ------------------------

           IN:                                      IN:
           ---                                      ---
             STORAGE =    51369928.0000               STORAGE =      917014.1875
       CONSTANT HEAD =           0.0000         CONSTANT HEAD =           0.0000
       RIVER LEAKAGE =    99315376.0000         RIVER LEAKAGE =      696074.1875
            RECHARGE =        1010.1920              RECHARGE =       5.2971E-05

            TOTAL IN =   150686304.0000              TOTAL IN =     1613088.3750

          OUT:                                     OUT:
          ----                                     ----
             STORAGE =   150512944.0000               STORAGE =     1607228.2500
       CONSTANT HEAD =           0.0000         CONSTANT HEAD =           0.0000
       RIVER LEAKAGE =      192336.8906         RIVER LEAKAGE =        5989.8955
            RECHARGE =           0.0000              RECHARGE =           0.0000

           TOTAL OUT =   150705280.0000             TOTAL OUT =     1613218.1250

            IN - OUT =      -18976.0000              IN - OUT =        -129.7500

 PERCENT DISCREPANCY =          -0.01     PERCENT DISCREPANCY =          -0.01






         TIME SUMMARY AT END OF TIME STEP   55 IN STRESS PERIOD    1
                    SECONDS     MINUTES      HOURS       DAYS        YEARS
                    -----------------------------------------------------------
   TIME STEP LENGTH  86400.      1440.0      24.000      1.0000     2.73785E-03
 STRESS PERIOD TIME 4.75200E+06  79200.      1320.0      55.000     0.15058    
         TOTAL TIME 4.75200E+06  79200.      1320.0      55.000     0.15058    
1
 
 SOLVING FOR HEAD 
                                                   Max.-Head-Change                        Max.-Flux-Residual
  Residual-Control   Outer-Iter.   Inner-Iter.     Column Row Layer    Max.-Head-Change    Column Row Layer    Max.-Flux-Residual            L2-New               L2-Old           Solver-Max-Delh
          0                 1           2            58   12     1       0.2168240120E+00      34  106    1       0.1096955455E+06      0.1905106965E+06      0.4914850685E+02      0.2168240120E+00
          0                 2           2            58   11     1       0.1508969070E+00      34  106    1      -0.1096983933E+05      0.1905144721E+05      0.1905106965E+06      0.1508969070E+00
          0                 3           2            58   11     1       0.1490725338E+00      34  106    1      -0.5484938111E+03      0.9526525900E+03      0.1905144721E+05      0.1490725338E+00
          1                 3           0            58   11     1       0.1043507719E+00      29  103    1      -0.1875654238E+05      0.1875660612E+05      0.9526525900E+03      0.1490725338E+00
          2                 3           0            58   11     1       0.7304553905E-01      29  103    1      -0.1942528566E+04      0.1968595680E+04      0.1875660612E+05      0.1490725338E+00
          0                 4           2            58   11     1       0.1481879211E+00      34  106    1      -0.2931672575E+03      0.5092927930E+03      0.1968595680E+04      0.1481879211E+00
          1                 4           0            58   11     1       0.1037315430E+00      29  103    1      -0.4615408965E+05      0.4615409800E+05      0.5092927930E+03      0.1481879211E+00
          2                 4           0            58   11     1       0.7261207889E-01      29  103    1      -0.2935967225E+05      0.2936016974E+05      0.4615409800E+05      0.1481879211E+00
          3                 4           0            58   11     1       0.5082845436E-01      29  103    1      -0.1760358362E+05      0.1760569045E+05      0.2936016974E+05      0.1481879211E+00
          4                 4           0            58   11     1       0.3557991744E-01      29  103    1      -0.9374323363E+04      0.9380611584E+04      0.1760569045E+05      0.1481879211E+00
                                                   Max.-Head-Change                        Max.-Flux-Residual
  Residual-Control   Outer-Iter.   Inner-Iter.     Column Row Layer    Max.-Head-Change    Column Row Layer    Max.-Flux-Residual            L2-New               L2-Old           Solver-Max-Delh
          5                 4           0            58   11     1       0.2490594179E-01      29  103    1      -0.3613842089E+04      0.3635166406E+04      0.9380611584E+04      0.1481879211E+00

    ------------------------------------------------
       NWT REQUIRED            4 OUTER ITERATIONS 
       AND A TOTAL OF          8 INNER ITERATIONS.
    ------------------------------------------------

 OUTPUT CONTROL FOR STRESS PERIOD    1   TIME STEP   56
    SAVE HEAD FOR ALL LAYERS
    SAVE DRAWDOWN FOR ALL LAYERS
    SAVE BUDGET
    PRINT BUDGET
 UBDSV1 SAVING "         STORAGE" ON UNIT   9 AT TIME STEP 56, STRESS PERIOD   1
 UBDSV2 SAVING "   CONSTANT HEAD" ON UNIT   9 AT TIME STEP 56, STRESS PERIOD   1
 UBDSV1 SAVING "FLOW RIGHT FACE " ON UNIT   9 AT TIME STEP 56, STRESS PERIOD   1
 UBDSV1 SAVING "FLOW FRONT FACE " ON UNIT   9 AT TIME STEP 56, STRESS PERIOD   1
 UBDSV4 SAVING "   RIVER LEAKAGE" ON UNIT   9 AT TIME STEP 56, STRESS PERIOD   1
 UBDSV3 SAVING "        RECHARGE" ON UNIT   9 AT TIME STEP 56, STRESS PERIOD   1

 HEAD WILL BE SAVED ON UNIT   37 AT END OF TIME STEP   56, STRESS PERIOD    1

 DRAWDOWN WILL BE SAVED ON UNIT   38 AT END OF TIME STEP   56, STRESS PERIOD    1
1
  VOLUMETRIC BUDGET FOR ENTIRE MODEL AT END OF TIME STEP   56, STRESS PERIOD   1
  ------------------------------------------------------------------------------

     CUMULATIVE VOLUMES      L**3       RATES FOR THIS TIME STEP      L**3/T
     ------------------                 ------------------------

           IN:                                      IN:
           ---                                      ---
             STORAGE =    52288180.0000               STORAGE =      918253.8125
       CONSTANT HEAD =           0.0000         CONSTANT HEAD =           0.0000
       RIVER LEAKAGE =   100011448.0000         RIVER LEAKAGE =      696070.9375
            RECHARGE =        1010.1920              RECHARGE =       4.2202E-05

            TOTAL IN =   152300640.0000              TOTAL IN =     1614324.7500

          OUT:                                     OUT:
          ----                                     ----
             STORAGE =   152122784.0000               STORAGE =     1609839.0000
       CONSTANT HEAD =           0.0000         CONSTANT HEAD =           0.0000
       RIVER LEAKAGE =      198329.0156         RIVER LEAKAGE =        5992.1260
            RECHARGE =           0.0000              RECHARGE =           0.0000

           TOTAL OUT =   152321120.0000             TOTAL OUT =     1615831.1250

            IN - OUT =      -20480.0000              IN - OUT =       -1506.3750

 PERCENT DISCREPANCY =          -0.01     PERCENT DISCREPANCY =          -0.09






         TIME SUMMARY AT END OF TIME STEP   56 IN STRESS PERIOD    1
                    SECONDS     MINUTES      HOURS       DAYS        YEARS
                    -----------------------------------------------------------
   TIME STEP LENGTH  86400.      1440.0      24.000      1.0000     2.73785E-03
 STRESS PERIOD TIME 4.83840E+06  80640.      1344.0      56.000     0.15332    
         TOTAL TIME 4.83840E+06  80640.      1344.0      56.000     0.15332    
1
 
 SOLVING FOR HEAD 
                                                   Max.-Head-Change                        Max.-Flux-Residual
  Residual-Control   Outer-Iter.   Inner-Iter.     Column Row Layer    Max.-Head-Change    Column Row Layer    Max.-Flux-Residual            L2-New               L2-Old           Solver-Max-Delh
          0                 1           2            58   12     1       0.2168195606E+00      34  106    1       0.1096116126E+06      0.1904009289E+06      0.4280252846E+03      0.2168195606E+00
          0                 2           2            58   11     1       0.1510354015E+00      29  103    1      -0.5668068761E+05      0.5979330922E+05      0.1904009289E+06      0.1510354015E+00
          0                 3           2            58   11     1       0.1491770426E+00      34   42    1      -0.3494182962E+04      0.4598662789E+04      0.5979330922E+05      0.1491770426E+00

    ------------------------------------------------
       NWT REQUIRED            3 OUTER ITERATIONS 
       AND A TOTAL OF          6 INNER ITERATIONS.
    ------------------------------------------------

 OUTPUT CONTROL FOR STRESS PERIOD    1   TIME STEP   57
    SAVE HEAD FOR ALL LAYERS
    SAVE DRAWDOWN FOR ALL LAYERS
    SAVE BUDGET
    PRINT BUDGET
 UBDSV1 SAVING "         STORAGE" ON UNIT   9 AT TIME STEP 57, STRESS PERIOD   1
 UBDSV2 SAVING "   CONSTANT HEAD" ON UNIT   9 AT TIME STEP 57, STRESS PERIOD   1
 UBDSV1 SAVING "FLOW RIGHT FACE " ON UNIT   9 AT TIME STEP 57, STRESS PERIOD   1
 UBDSV1 SAVING "FLOW FRONT FACE " ON UNIT   9 AT TIME STEP 57, STRESS PERIOD   1
 UBDSV4 SAVING "   RIVER LEAKAGE" ON UNIT   9 AT TIME STEP 57, STRESS PERIOD   1
 UBDSV3 SAVING "        RECHARGE" ON UNIT   9 AT TIME STEP 57, STRESS PERIOD   1

 HEAD WILL BE SAVED ON UNIT   37 AT END OF TIME STEP   57, STRESS PERIOD    1

 DRAWDOWN WILL BE SAVED ON UNIT   38 AT END OF TIME STEP   57, STRESS PERIOD    1
1
  VOLUMETRIC BUDGET FOR ENTIRE MODEL AT END OF TIME STEP   57, STRESS PERIOD   1
  ------------------------------------------------------------------------------

     CUMULATIVE VOLUMES      L**3       RATES FOR THIS TIME STEP      L**3/T
     ------------------                 ------------------------

           IN:                                      IN:
           ---                                      ---
             STORAGE =    53204016.0000               STORAGE =      915836.2500
       CONSTANT HEAD =           0.0000         CONSTANT HEAD =           0.0000
       RIVER LEAKAGE =   100707512.0000         RIVER LEAKAGE =      696067.7500
            RECHARGE =        1010.1921              RECHARGE =       3.3628E-05

            TOTAL IN =   153912544.0000              TOTAL IN =     1611904.0000

          OUT:                                     OUT:
          ----                                     ----
             STORAGE =   153729152.0000               STORAGE =     1606360.8750
       CONSTANT HEAD =           0.0000         CONSTANT HEAD =           0.0000
       RIVER LEAKAGE =      204323.3906         RIVER LEAKAGE =        5994.3804
            RECHARGE =           0.0000              RECHARGE =           0.0000

           TOTAL OUT =   153933472.0000             TOTAL OUT =     1612355.2500

            IN - OUT =      -20928.0000              IN - OUT =        -451.2500

 PERCENT DISCREPANCY =          -0.01     PERCENT DISCREPANCY =          -0.03






         TIME SUMMARY AT END OF TIME STEP   57 IN STRESS PERIOD    1
                    SECONDS     MINUTES      HOURS       DAYS        YEARS
                    -----------------------------------------------------------
   TIME STEP LENGTH  86400.      1440.0      24.000      1.0000     2.73785E-03
 STRESS PERIOD TIME 4.92480E+06  82080.      1368.0      57.000     0.15606    
         TOTAL TIME 4.92480E+06  82080.      1368.0      57.000     0.15606    
1
 
 SOLVING FOR HEAD 
                                                   Max.-Head-Change                        Max.-Flux-Residual
  Residual-Control   Outer-Iter.   Inner-Iter.     Column Row Layer    Max.-Head-Change    Column Row Layer    Max.-Flux-Residual            L2-New               L2-Old           Solver-Max-Delh
          0                 1           2            58   12     1       0.2168154188E+00      34  106    1       0.1095276786E+06      0.1902913190E+06      0.2301943141E+03      0.2168154188E+00
          0                 2           2            58   11     1       0.1504387151E+00      34  106    1      -0.1095305165E+05      0.1902950826E+05      0.1902913190E+06      0.1504387151E+00
          0                 3           2            58   11     1       0.1485556043E+00      34  106    1      -0.5476544206E+03      0.9515449789E+03      0.1902950826E+05      0.1485556043E+00

    ------------------------------------------------
       NWT REQUIRED            3 OUTER ITERATIONS 
       AND A TOTAL OF          6 INNER ITERATIONS.
    ------------------------------------------------

 OUTPUT CONTROL FOR STRESS PERIOD    1   TIME STEP   58
    SAVE HEAD FOR ALL LAYERS
    SAVE DRAWDOWN FOR ALL LAYERS
    SAVE BUDGET
    PRINT BUDGET
 UBDSV1 SAVING "         STORAGE" ON UNIT   9 AT TIME STEP 58, STRESS PERIOD   1
 UBDSV2 SAVING "   CONSTANT HEAD" ON UNIT   9 AT TIME STEP 58, STRESS PERIOD   1
 UBDSV1 SAVING "FLOW RIGHT FACE " ON UNIT   9 AT TIME STEP 58, STRESS PERIOD   1
 UBDSV1 SAVING "FLOW FRONT FACE " ON UNIT   9 AT TIME STEP 58, STRESS PERIOD   1
 UBDSV4 SAVING "   RIVER LEAKAGE" ON UNIT   9 AT TIME STEP 58, STRESS PERIOD   1
 UBDSV3 SAVING "        RECHARGE" ON UNIT   9 AT TIME STEP 58, STRESS PERIOD   1

 HEAD WILL BE SAVED ON UNIT   37 AT END OF TIME STEP   58, STRESS PERIOD    1

 DRAWDOWN WILL BE SAVED ON UNIT   38 AT END OF TIME STEP   58, STRESS PERIOD    1
1
  VOLUMETRIC BUDGET FOR ENTIRE MODEL AT END OF TIME STEP   58, STRESS PERIOD   1
  ------------------------------------------------------------------------------

     CUMULATIVE VOLUMES      L**3       RATES FOR THIS TIME STEP      L**3/T
     ------------------                 ------------------------

           IN:                                      IN:
           ---                                      ---
             STORAGE =    54119264.0000               STORAGE =      915249.0625
       CONSTANT HEAD =           0.0000         CONSTANT HEAD =           0.0000
       RIVER LEAKAGE =   101403576.0000         RIVER LEAKAGE =      696064.5625
            RECHARGE =        1010.1921              RECHARGE =       2.6802E-05

            TOTAL IN =   155523840.0000              TOTAL IN =     1611313.6250

          OUT:                                     OUT:
          ----                                     ----
             STORAGE =   155334608.0000               STORAGE =     1605451.3750
       CONSTANT HEAD =           0.0000         CONSTANT HEAD =           0.0000
       RIVER LEAKAGE =      210320.0000         RIVER LEAKAGE =        5996.6079
            RECHARGE =           0.0000              RECHARGE =           0.0000

           TOTAL OUT =   155544928.0000             TOTAL OUT =     1611448.0000

            IN - OUT =      -21088.0000              IN - OUT =        -134.3750

 PERCENT DISCREPANCY =          -0.01     PERCENT DISCREPANCY =          -0.01






         TIME SUMMARY AT END OF TIME STEP   58 IN STRESS PERIOD    1
                    SECONDS     MINUTES      HOURS       DAYS        YEARS
                    -----------------------------------------------------------
   TIME STEP LENGTH  86400.      1440.0      24.000      1.0000     2.73785E-03
 STRESS PERIOD TIME 5.01120E+06  83520.      1392.0      58.000     0.15880    
         TOTAL TIME 5.01120E+06  83520.      1392.0      58.000     0.15880    
1
 
 SOLVING FOR HEAD 
                                                   Max.-Head-Change                        Max.-Flux-Residual
  Residual-Control   Outer-Iter.   Inner-Iter.     Column Row Layer    Max.-Head-Change    Column Row Layer    Max.-Flux-Residual            L2-New               L2-Old           Solver-Max-Delh
          0                 1           2            58   12     1       0.2168113000E+00      34  106    1       0.1094435900E+06      0.1901816932E+06      0.4890061407E+02      0.2168113000E+00
          0                 2           2            58   11     1       0.1497553102E+00      34  106    1      -0.1094464229E+05      0.1901854543E+05      0.1901816932E+06      0.1497553102E+00
          0                 3           2            58   11     1       0.1478488207E+00      34  106    1      -0.5472339492E+03      0.9509986062E+03      0.1901854543E+05      0.1478488207E+00

    ------------------------------------------------
       NWT REQUIRED            3 OUTER ITERATIONS 
       AND A TOTAL OF          6 INNER ITERATIONS.
    ------------------------------------------------

 OUTPUT CONTROL FOR STRESS PERIOD    1   TIME STEP   59
    SAVE HEAD FOR ALL LAYERS
    SAVE DRAWDOWN FOR ALL LAYERS
    SAVE BUDGET
    PRINT BUDGET
 UBDSV1 SAVING "         STORAGE" ON UNIT   9 AT TIME STEP 59, STRESS PERIOD   1
 UBDSV2 SAVING "   CONSTANT HEAD" ON UNIT   9 AT TIME STEP 59, STRESS PERIOD   1
 UBDSV1 SAVING "FLOW RIGHT FACE " ON UNIT   9 AT TIME STEP 59, STRESS PERIOD   1
 UBDSV1 SAVING "FLOW FRONT FACE " ON UNIT   9 AT TIME STEP 59, STRESS PERIOD   1
 UBDSV4 SAVING "   RIVER LEAKAGE" ON UNIT   9 AT TIME STEP 59, STRESS PERIOD   1
 UBDSV3 SAVING "        RECHARGE" ON UNIT   9 AT TIME STEP 59, STRESS PERIOD   1

 HEAD WILL BE SAVED ON UNIT   37 AT END OF TIME STEP   59, STRESS PERIOD    1

 DRAWDOWN WILL BE SAVED ON UNIT   38 AT END OF TIME STEP   59, STRESS PERIOD    1
1
  VOLUMETRIC BUDGET FOR ENTIRE MODEL AT END OF TIME STEP   59, STRESS PERIOD   1
  ------------------------------------------------------------------------------

     CUMULATIVE VOLUMES      L**3       RATES FOR THIS TIME STEP      L**3/T
     ------------------                 ------------------------

           IN:                                      IN:
           ---                                      ---
             STORAGE =    55033928.0000               STORAGE =      914662.3750
       CONSTANT HEAD =           0.0000         CONSTANT HEAD =           0.0000
       RIVER LEAKAGE =   102099640.0000         RIVER LEAKAGE =      696061.3750
            RECHARGE =        1010.1921              RECHARGE =       2.1364E-05

            TOTAL IN =   157134576.0000              TOTAL IN =     1610723.7500

          OUT:                                     OUT:
          ----                                     ----
             STORAGE =   156939472.0000               STORAGE =     1604858.7500
       CONSTANT HEAD =           0.0000         CONSTANT HEAD =           0.0000
       RIVER LEAKAGE =      216318.8438         RIVER LEAKAGE =        5998.8359
            RECHARGE =           0.0000              RECHARGE =           0.0000

           TOTAL OUT =   157155792.0000             TOTAL OUT =     1610857.6250

            IN - OUT =      -21216.0000              IN - OUT =        -133.8750

 PERCENT DISCREPANCY =          -0.01     PERCENT DISCREPANCY =          -0.01






         TIME SUMMARY AT END OF TIME STEP   59 IN STRESS PERIOD    1
                    SECONDS     MINUTES      HOURS       DAYS        YEARS
                    -----------------------------------------------------------
   TIME STEP LENGTH  86400.      1440.0      24.000      1.0000     2.73785E-03
 STRESS PERIOD TIME 5.09760E+06  84960.      1416.0      59.000     0.16153    
         TOTAL TIME 5.09760E+06  84960.      1416.0      59.000     0.16153    
1
 
 SOLVING FOR HEAD 
                                                   Max.-Head-Change                        Max.-Flux-Residual
  Residual-Control   Outer-Iter.   Inner-Iter.     Column Row Layer    Max.-Head-Change    Column Row Layer    Max.-Flux-Residual            L2-New               L2-Old           Solver-Max-Delh
          0                 1           2            58   12     1       0.2168068867E+00      34  106    1       0.1093593371E+06      0.1900719930E+06      0.4890774682E+02      0.2168068867E+00
          0                 2           2            58   11     1       0.1489897538E+00      34  106    1      -0.1093621650E+05      0.1900757517E+05      0.1900719930E+06      0.1489897538E+00
          0                 3           2            58   11     1       0.1470612550E+00      34  106    1      -0.5468126561E+03      0.9504518619E+03      0.1900757517E+05      0.1470612550E+00

    ------------------------------------------------
       NWT REQUIRED            3 OUTER ITERATIONS 
       AND A TOTAL OF          6 INNER ITERATIONS.
    ------------------------------------------------

 OUTPUT CONTROL FOR STRESS PERIOD    1   TIME STEP   60
    SAVE HEAD FOR ALL LAYERS
    SAVE DRAWDOWN FOR ALL LAYERS
    SAVE BUDGET
    PRINT BUDGET
 UBDSV1 SAVING "         STORAGE" ON UNIT   9 AT TIME STEP 60, STRESS PERIOD   1
 UBDSV2 SAVING "   CONSTANT HEAD" ON UNIT   9 AT TIME STEP 60, STRESS PERIOD   1
 UBDSV1 SAVING "FLOW RIGHT FACE " ON UNIT   9 AT TIME STEP 60, STRESS PERIOD   1
 UBDSV1 SAVING "FLOW FRONT FACE " ON UNIT   9 AT TIME STEP 60, STRESS PERIOD   1
 UBDSV4 SAVING "   RIVER LEAKAGE" ON UNIT   9 AT TIME STEP 60, STRESS PERIOD   1
 UBDSV3 SAVING "        RECHARGE" ON UNIT   9 AT TIME STEP 60, STRESS PERIOD   1

 HEAD WILL BE SAVED ON UNIT   37 AT END OF TIME STEP   60, STRESS PERIOD    1

 DRAWDOWN WILL BE SAVED ON UNIT   38 AT END OF TIME STEP   60, STRESS PERIOD    1
1
  VOLUMETRIC BUDGET FOR ENTIRE MODEL AT END OF TIME STEP   60, STRESS PERIOD   1
  ------------------------------------------------------------------------------

     CUMULATIVE VOLUMES      L**3       RATES FOR THIS TIME STEP      L**3/T
     ------------------                 ------------------------

           IN:                                      IN:
           ---                                      ---
             STORAGE =    55948004.0000               STORAGE =      914076.3125
       CONSTANT HEAD =           0.0000         CONSTANT HEAD =           0.0000
       RIVER LEAKAGE =   102795696.0000         RIVER LEAKAGE =      696058.1875
            RECHARGE =        1010.1921              RECHARGE =       1.7033E-05

            TOTAL IN =   158744704.0000              TOTAL IN =     1610134.5000

          OUT:                                     OUT:
          ----                                     ----
             STORAGE =   158543744.0000               STORAGE =     1604266.7500
       CONSTANT HEAD =           0.0000         CONSTANT HEAD =           0.0000
       RIVER LEAKAGE =      222319.9062         RIVER LEAKAGE =        6001.0649
            RECHARGE =           0.0000              RECHARGE =           0.0000

           TOTAL OUT =   158766064.0000             TOTAL OUT =     1610267.8750

            IN - OUT =      -21360.0000              IN - OUT =        -133.3750

 PERCENT DISCREPANCY =          -0.01     PERCENT DISCREPANCY =          -0.01






         TIME SUMMARY AT END OF TIME STEP   60 IN STRESS PERIOD    1
                    SECONDS     MINUTES      HOURS       DAYS        YEARS
                    -----------------------------------------------------------
   TIME STEP LENGTH  86400.      1440.0      24.000      1.0000     2.73785E-03
 STRESS PERIOD TIME 5.18400E+06  86400.      1440.0      60.000     0.16427    
         TOTAL TIME 5.18400E+06  86400.      1440.0      60.000     0.16427    
1
 
 SOLVING FOR HEAD 
                                                   Max.-Head-Change                        Max.-Flux-Residual
  Residual-Control   Outer-Iter.   Inner-Iter.     Column Row Layer    Max.-Head-Change    Column Row Layer    Max.-Flux-Residual            L2-New               L2-Old           Solver-Max-Delh
          0                 1           2            58   12     1       0.2168028086E+00      34  106    1       0.1092749206E+06      0.1899551999E+06      0.4891484359E+02      0.2168028086E+00
          0                 2           2            58   11     1       0.1481466701E+00      34  106    1      -0.1092777436E+05      0.1899589563E+05      0.1899551999E+06      0.1481466701E+00
          0                 3           2            58   11     1       0.1461975226E+00      34  106    1      -0.5463905452E+03      0.1010757139E+04      0.1899589563E+05      0.1461975226E+00

    ------------------------------------------------
       NWT REQUIRED            3 OUTER ITERATIONS 
       AND A TOTAL OF          6 INNER ITERATIONS.
    ------------------------------------------------

 OUTPUT CONTROL FOR STRESS PERIOD    1   TIME STEP   61
    SAVE HEAD FOR ALL LAYERS
    SAVE DRAWDOWN FOR ALL LAYERS
    SAVE BUDGET
    PRINT BUDGET
 UBDSV1 SAVING "         STORAGE" ON UNIT   9 AT TIME STEP 61, STRESS PERIOD   1
 UBDSV2 SAVING "   CONSTANT HEAD" ON UNIT   9 AT TIME STEP 61, STRESS PERIOD   1
 UBDSV1 SAVING "FLOW RIGHT FACE " ON UNIT   9 AT TIME STEP 61, STRESS PERIOD   1
 UBDSV1 SAVING "FLOW FRONT FACE " ON UNIT   9 AT TIME STEP 61, STRESS PERIOD   1
 UBDSV4 SAVING "   RIVER LEAKAGE" ON UNIT   9 AT TIME STEP 61, STRESS PERIOD   1
 UBDSV3 SAVING "        RECHARGE" ON UNIT   9 AT TIME STEP 61, STRESS PERIOD   1

 HEAD WILL BE SAVED ON UNIT   37 AT END OF TIME STEP   61, STRESS PERIOD    1

 DRAWDOWN WILL BE SAVED ON UNIT   38 AT END OF TIME STEP   61, STRESS PERIOD    1
1
  VOLUMETRIC BUDGET FOR ENTIRE MODEL AT END OF TIME STEP   61, STRESS PERIOD   1
  ------------------------------------------------------------------------------

     CUMULATIVE VOLUMES      L**3       RATES FOR THIS TIME STEP      L**3/T
     ------------------                 ------------------------

           IN:                                      IN:
           ---                                      ---
             STORAGE =    56861500.0000               STORAGE =      913496.6875
       CONSTANT HEAD =           0.0000         CONSTANT HEAD =           0.0000
       RIVER LEAKAGE =   103491576.0000         RIVER LEAKAGE =      695878.8750
            RECHARGE =        1010.1921              RECHARGE =       1.3581E-05

            TOTAL IN =   160354080.0000              TOTAL IN =     1609375.5000

          OUT:                                     OUT:
          ----                                     ----
             STORAGE =   160147264.0000               STORAGE =     1603522.5000
       CONSTANT HEAD =           0.0000         CONSTANT HEAD =           0.0000
       RIVER LEAKAGE =      228323.2344         RIVER LEAKAGE =        6003.3223
            RECHARGE =           0.0000              RECHARGE =           0.0000

           TOTAL OUT =   160375584.0000             TOTAL OUT =     1609525.8750

            IN - OUT =      -21504.0000              IN - OUT =        -150.3750

 PERCENT DISCREPANCY =          -0.01     PERCENT DISCREPANCY =          -0.01






         TIME SUMMARY AT END OF TIME STEP   61 IN STRESS PERIOD    1
                    SECONDS     MINUTES      HOURS       DAYS        YEARS
                    -----------------------------------------------------------
   TIME STEP LENGTH  86400.      1440.0      24.000      1.0000     2.73785E-03
 STRESS PERIOD TIME 5.27040E+06  87840.      1464.0      61.000     0.16701    
         TOTAL TIME 5.27040E+06  87840.      1464.0      61.000     0.16701    
1
 
 SOLVING FOR HEAD 
                                                   Max.-Head-Change                        Max.-Flux-Residual
  Residual-Control   Outer-Iter.   Inner-Iter.     Column Row Layer    Max.-Head-Change    Column Row Layer    Max.-Flux-Residual            L2-New               L2-Old           Solver-Max-Delh
          0                 1           2            58   12     1       0.2167984249E+00      34  106    1       0.1091903523E+06      0.1898454169E+06      0.5188084738E+02      0.2167984249E+00
          0                 2           2            58   11     1       0.1472306838E+00      34  106    1      -0.1091931702E+05      0.1898491709E+05      0.1898454169E+06      0.1472306838E+00
          0                 3           2            58   11     1       0.1452622358E+00      34  106    1      -0.5459676751E+03      0.9493224931E+03      0.1898491709E+05      0.1452622358E+00

    ------------------------------------------------
       NWT REQUIRED            3 OUTER ITERATIONS 
       AND A TOTAL OF          6 INNER ITERATIONS.
    ------------------------------------------------

 OUTPUT CONTROL FOR STRESS PERIOD    1   TIME STEP   62
    SAVE HEAD FOR ALL LAYERS
    SAVE DRAWDOWN FOR ALL LAYERS
    SAVE BUDGET
    PRINT BUDGET
 UBDSV1 SAVING "         STORAGE" ON UNIT   9 AT TIME STEP 62, STRESS PERIOD   1
 UBDSV2 SAVING "   CONSTANT HEAD" ON UNIT   9 AT TIME STEP 62, STRESS PERIOD   1
 UBDSV1 SAVING "FLOW RIGHT FACE " ON UNIT   9 AT TIME STEP 62, STRESS PERIOD   1
 UBDSV1 SAVING "FLOW FRONT FACE " ON UNIT   9 AT TIME STEP 62, STRESS PERIOD   1
 UBDSV4 SAVING "   RIVER LEAKAGE" ON UNIT   9 AT TIME STEP 62, STRESS PERIOD   1
 UBDSV3 SAVING "        RECHARGE" ON UNIT   9 AT TIME STEP 62, STRESS PERIOD   1

 HEAD WILL BE SAVED ON UNIT   37 AT END OF TIME STEP   62, STRESS PERIOD    1

 DRAWDOWN WILL BE SAVED ON UNIT   38 AT END OF TIME STEP   62, STRESS PERIOD    1
1
  VOLUMETRIC BUDGET FOR ENTIRE MODEL AT END OF TIME STEP   62, STRESS PERIOD   1
  ------------------------------------------------------------------------------

     CUMULATIVE VOLUMES      L**3       RATES FOR THIS TIME STEP      L**3/T
     ------------------                 ------------------------

           IN:                                      IN:
           ---                                      ---
             STORAGE =    57774412.0000               STORAGE =      912911.8125
       CONSTANT HEAD =           0.0000         CONSTANT HEAD =           0.0000
       RIVER LEAKAGE =   104187448.0000         RIVER LEAKAGE =      695875.6875
            RECHARGE =        1010.1921              RECHARGE =       1.0831E-05

            TOTAL IN =   161962864.0000              TOTAL IN =     1608787.5000

          OUT:                                     OUT:
          ----                                     ----
             STORAGE =   161750176.0000               STORAGE =     1602914.3750
       CONSTANT HEAD =           0.0000         CONSTANT HEAD =           0.0000
       RIVER LEAKAGE =      234328.7812         RIVER LEAKAGE =        6005.5522
            RECHARGE =           0.0000              RECHARGE =           0.0000

           TOTAL OUT =   161984512.0000             TOTAL OUT =     1608919.8750

            IN - OUT =      -21648.0000              IN - OUT =        -132.3750

 PERCENT DISCREPANCY =          -0.01     PERCENT DISCREPANCY =          -0.01






         TIME SUMMARY AT END OF TIME STEP   62 IN STRESS PERIOD    1
                    SECONDS     MINUTES      HOURS       DAYS        YEARS
                    -----------------------------------------------------------
   TIME STEP LENGTH  86400.      1440.0      24.000      1.0000     2.73785E-03
 STRESS PERIOD TIME 5.35680E+06  89280.      1488.0      62.000     0.16975    
         TOTAL TIME 5.35680E+06  89280.      1488.0      62.000     0.16975    
1
 
 SOLVING FOR HEAD 
                                                   Max.-Head-Change                        Max.-Flux-Residual
  Residual-Control   Outer-Iter.   Inner-Iter.     Column Row Layer    Max.-Head-Change    Column Row Layer    Max.-Flux-Residual            L2-New               L2-Old           Solver-Max-Delh
          0                 1           2            58   12     1       0.2167943863E+00      34  106    1       0.1091056109E+06      0.1897356075E+06      0.4892708016E+02      0.2167943863E+00
          0                 2           2            58   11     1       0.1462464352E+00      34  106    1      -0.1091084238E+05      0.1897393591E+05      0.1897356075E+06      0.1462464352E+00
          0                 3           2            58   11     1      -0.9827383318E-01      58   11    1      -0.1034514153E+05      0.1038855745E+05      0.1897393591E+05     -0.9827383318E-01
          0                 4           2            63    9     1       0.9250929527E-01      58   11    1      -0.5173533939E+03      0.5196608308E+03      0.1038855745E+05      0.9250929527E-01

    ------------------------------------------------
       NWT REQUIRED            4 OUTER ITERATIONS 
       AND A TOTAL OF          8 INNER ITERATIONS.
    ------------------------------------------------

 OUTPUT CONTROL FOR STRESS PERIOD    1   TIME STEP   63
    SAVE HEAD FOR ALL LAYERS
    SAVE DRAWDOWN FOR ALL LAYERS
    SAVE BUDGET
    PRINT BUDGET
 UBDSV1 SAVING "         STORAGE" ON UNIT   9 AT TIME STEP 63, STRESS PERIOD   1
 UBDSV2 SAVING "   CONSTANT HEAD" ON UNIT   9 AT TIME STEP 63, STRESS PERIOD   1
 UBDSV1 SAVING "FLOW RIGHT FACE " ON UNIT   9 AT TIME STEP 63, STRESS PERIOD   1
 UBDSV1 SAVING "FLOW FRONT FACE " ON UNIT   9 AT TIME STEP 63, STRESS PERIOD   1
 UBDSV4 SAVING "   RIVER LEAKAGE" ON UNIT   9 AT TIME STEP 63, STRESS PERIOD   1
 UBDSV3 SAVING "        RECHARGE" ON UNIT   9 AT TIME STEP 63, STRESS PERIOD   1

 HEAD WILL BE SAVED ON UNIT   37 AT END OF TIME STEP   63, STRESS PERIOD    1

 DRAWDOWN WILL BE SAVED ON UNIT   38 AT END OF TIME STEP   63, STRESS PERIOD    1
1
  VOLUMETRIC BUDGET FOR ENTIRE MODEL AT END OF TIME STEP   63, STRESS PERIOD   1
  ------------------------------------------------------------------------------

     CUMULATIVE VOLUMES      L**3       RATES FOR THIS TIME STEP      L**3/T
     ------------------                 ------------------------

           IN:                                      IN:
           ---                                      ---
             STORAGE =    58686524.0000               STORAGE =      912110.8750
       CONSTANT HEAD =           0.0000         CONSTANT HEAD =           0.0000
       RIVER LEAKAGE =   104883320.0000         RIVER LEAKAGE =      695872.5000
            RECHARGE =        1010.1921              RECHARGE =       8.6389E-06

            TOTAL IN =   163570848.0000              TOTAL IN =     1607983.3750

          OUT:                                     OUT:
          ----                                     ----
             STORAGE =   163352144.0000               STORAGE =     1601971.0000
       CONSTANT HEAD =           0.0000         CONSTANT HEAD =           0.0000
       RIVER LEAKAGE =      240336.5938         RIVER LEAKAGE =        6007.8066
            RECHARGE =           0.0000              RECHARGE =           0.0000

           TOTAL OUT =   163592480.0000             TOTAL OUT =     1607978.7500

            IN - OUT =      -21632.0000              IN - OUT =           4.6250

 PERCENT DISCREPANCY =          -0.01     PERCENT DISCREPANCY =           0.00






         TIME SUMMARY AT END OF TIME STEP   63 IN STRESS PERIOD    1
                    SECONDS     MINUTES      HOURS       DAYS        YEARS
                    -----------------------------------------------------------
   TIME STEP LENGTH  86400.      1440.0      24.000      1.0000     2.73785E-03
 STRESS PERIOD TIME 5.44320E+06  90720.      1512.0      63.000     0.17248    
         TOTAL TIME 5.44320E+06  90720.      1512.0      63.000     0.17248    
1
 
 SOLVING FOR HEAD 
                                                   Max.-Head-Change                        Max.-Flux-Residual
  Residual-Control   Outer-Iter.   Inner-Iter.     Column Row Layer    Max.-Head-Change    Column Row Layer    Max.-Flux-Residual            L2-New               L2-Old           Solver-Max-Delh
          0                 1           2            58   12     1       0.2167896774E+00      34  106    1       0.1090207418E+06      0.1896257778E+06      0.2859727190E+02      0.2167896774E+00
          0                 2           2            63    9     1       0.9386080659E-01      34  106    1      -0.1090235498E+05      0.1896295267E+05      0.1896257778E+06      0.9386080659E-01
          0                 3           2            63    9     1       0.9379847162E-01      34  106    1      -0.5451195660E+03      0.9482269420E+03      0.1896295267E+05      0.9379847162E-01

    ------------------------------------------------
       NWT REQUIRED            3 OUTER ITERATIONS 
       AND A TOTAL OF          6 INNER ITERATIONS.
    ------------------------------------------------

 OUTPUT CONTROL FOR STRESS PERIOD    1   TIME STEP   64
    SAVE HEAD FOR ALL LAYERS
    SAVE DRAWDOWN FOR ALL LAYERS
    SAVE BUDGET
    PRINT BUDGET
 UBDSV1 SAVING "         STORAGE" ON UNIT   9 AT TIME STEP 64, STRESS PERIOD   1
 UBDSV2 SAVING "   CONSTANT HEAD" ON UNIT   9 AT TIME STEP 64, STRESS PERIOD   1
 UBDSV1 SAVING "FLOW RIGHT FACE " ON UNIT   9 AT TIME STEP 64, STRESS PERIOD   1
 UBDSV1 SAVING "FLOW FRONT FACE " ON UNIT   9 AT TIME STEP 64, STRESS PERIOD   1
 UBDSV4 SAVING "   RIVER LEAKAGE" ON UNIT   9 AT TIME STEP 64, STRESS PERIOD   1
 UBDSV3 SAVING "        RECHARGE" ON UNIT   9 AT TIME STEP 64, STRESS PERIOD   1

 HEAD WILL BE SAVED ON UNIT   37 AT END OF TIME STEP   64, STRESS PERIOD    1

 DRAWDOWN WILL BE SAVED ON UNIT   38 AT END OF TIME STEP   64, STRESS PERIOD    1
1
  VOLUMETRIC BUDGET FOR ENTIRE MODEL AT END OF TIME STEP   64, STRESS PERIOD   1
  ------------------------------------------------------------------------------

     CUMULATIVE VOLUMES      L**3       RATES FOR THIS TIME STEP      L**3/T
     ------------------                 ------------------------

           IN:                                      IN:
           ---                                      ---
             STORAGE =    59598268.0000               STORAGE =      911744.1875
       CONSTANT HEAD =           0.0000         CONSTANT HEAD =           0.0000
       RIVER LEAKAGE =   105579192.0000         RIVER LEAKAGE =      695869.3125
            RECHARGE =        1010.1921              RECHARGE =       6.8913E-06

            TOTAL IN =   165178464.0000              TOTAL IN =     1607613.5000

          OUT:                                     OUT:
          ----                                     ----
             STORAGE =   164953888.0000               STORAGE =     1601736.2500
       CONSTANT HEAD =           0.0000         CONSTANT HEAD =           0.0000
       RIVER LEAKAGE =      246346.6562         RIVER LEAKAGE =        6010.0664
            RECHARGE =           0.0000              RECHARGE =           0.0000

           TOTAL OUT =   165200240.0000             TOTAL OUT =     1607746.3750

            IN - OUT =      -21776.0000              IN - OUT =        -132.8750

 PERCENT DISCREPANCY =          -0.01     PERCENT DISCREPANCY =          -0.01






         TIME SUMMARY AT END OF TIME STEP   64 IN STRESS PERIOD    1
                    SECONDS     MINUTES      HOURS       DAYS        YEARS
                    -----------------------------------------------------------
   TIME STEP LENGTH  86400.      1440.0      24.000      1.0000     2.73785E-03
 STRESS PERIOD TIME 5.52960E+06  92160.      1536.0      64.000     0.17522    
         TOTAL TIME 5.52960E+06  92160.      1536.0      64.000     0.17522    
1
 
 SOLVING FOR HEAD 
                                                   Max.-Head-Change                        Max.-Flux-Residual
  Residual-Control   Outer-Iter.   Inner-Iter.     Column Row Layer    Max.-Head-Change    Column Row Layer    Max.-Flux-Residual            L2-New               L2-Old           Solver-Max-Delh
          0                 1           2            58   12     1       0.2167847123E+00      34  106    1       0.1089357011E+06      0.1895159001E+06      0.4891972606E+02      0.2167847123E+00
          0                 2           2            63    9     1       0.9514314030E-01      34  106    1      -0.1089385042E+05      0.1895196465E+05      0.1895159001E+06      0.9514314030E-01
          0                 3           2            63    9     1       0.9507896822E-01      38   29    1      -0.7181736891E+03      0.1189062162E+04      0.1895196465E+05      0.9507896822E-01

    ------------------------------------------------
       NWT REQUIRED            3 OUTER ITERATIONS 
       AND A TOTAL OF          6 INNER ITERATIONS.
    ------------------------------------------------

 OUTPUT CONTROL FOR STRESS PERIOD    1   TIME STEP   65
    SAVE HEAD FOR ALL LAYERS
    SAVE DRAWDOWN FOR ALL LAYERS
    SAVE BUDGET
    PRINT BUDGET
 UBDSV1 SAVING "         STORAGE" ON UNIT   9 AT TIME STEP 65, STRESS PERIOD   1
 UBDSV2 SAVING "   CONSTANT HEAD" ON UNIT   9 AT TIME STEP 65, STRESS PERIOD   1
 UBDSV1 SAVING "FLOW RIGHT FACE " ON UNIT   9 AT TIME STEP 65, STRESS PERIOD   1
 UBDSV1 SAVING "FLOW FRONT FACE " ON UNIT   9 AT TIME STEP 65, STRESS PERIOD   1
 UBDSV4 SAVING "   RIVER LEAKAGE" ON UNIT   9 AT TIME STEP 65, STRESS PERIOD   1
 UBDSV3 SAVING "        RECHARGE" ON UNIT   9 AT TIME STEP 65, STRESS PERIOD   1

 HEAD WILL BE SAVED ON UNIT   37 AT END OF TIME STEP   65, STRESS PERIOD    1

 DRAWDOWN WILL BE SAVED ON UNIT   38 AT END OF TIME STEP   65, STRESS PERIOD    1
1
  VOLUMETRIC BUDGET FOR ENTIRE MODEL AT END OF TIME STEP   65, STRESS PERIOD   1
  ------------------------------------------------------------------------------

     CUMULATIVE VOLUMES      L**3       RATES FOR THIS TIME STEP      L**3/T
     ------------------                 ------------------------

           IN:                                      IN:
           ---                                      ---
             STORAGE =    60509428.0000               STORAGE =      911161.3125
       CONSTANT HEAD =           0.0000         CONSTANT HEAD =           0.0000
       RIVER LEAKAGE =   106275056.0000         RIVER LEAKAGE =      695866.1250
            RECHARGE =        1010.1921              RECHARGE =       5.4979E-06

            TOTAL IN =   166785488.0000              TOTAL IN =     1607027.5000

          OUT:                                     OUT:
          ----                                     ----
             STORAGE =   166555072.0000               STORAGE =     1601184.2500
       CONSTANT HEAD =           0.0000         CONSTANT HEAD =           0.0000
       RIVER LEAKAGE =      252358.9531         RIVER LEAKAGE =        6012.2988
            RECHARGE =           0.0000              RECHARGE =           0.0000

           TOTAL OUT =   166807424.0000             TOTAL OUT =     1607196.5000

            IN - OUT =      -21936.0000              IN - OUT =        -169.0000

 PERCENT DISCREPANCY =          -0.01     PERCENT DISCREPANCY =          -0.01






         TIME SUMMARY AT END OF TIME STEP   65 IN STRESS PERIOD    1
                    SECONDS     MINUTES      HOURS       DAYS        YEARS
                    -----------------------------------------------------------
   TIME STEP LENGTH  86400.      1440.0      24.000      1.0000     2.73785E-03
 STRESS PERIOD TIME 5.61600E+06  93600.      1560.0      65.000     0.17796    
         TOTAL TIME 5.61600E+06  93600.      1560.0      65.000     0.17796    
1
 
 SOLVING FOR HEAD 
                                                   Max.-Head-Change                        Max.-Flux-Residual
  Residual-Control   Outer-Iter.   Inner-Iter.     Column Row Layer    Max.-Head-Change    Column Row Layer    Max.-Flux-Residual            L2-New               L2-Old           Solver-Max-Delh
          0                 1           2            58   12     1       0.2167800943E+00      34  106    1       0.1088505010E+06      0.1894059551E+06      0.6068437609E+02      0.2167800943E+00
          0                 2           2            58   13     1       0.4646798831E+00      58   13    1       0.1294689279E+05      0.2286188901E+05      0.1894059551E+06      0.4646798831E+00
          0                 3           2            63    9     1       0.9635119103E-01      58   13    1      -0.1294688927E+04      0.1601244290E+04      0.2286188901E+05      0.9635119103E-01

    ------------------------------------------------
       NWT REQUIRED            3 OUTER ITERATIONS 
       AND A TOTAL OF          6 INNER ITERATIONS.
    ------------------------------------------------

 OUTPUT CONTROL FOR STRESS PERIOD    1   TIME STEP   66
    SAVE HEAD FOR ALL LAYERS
    SAVE DRAWDOWN FOR ALL LAYERS
    SAVE BUDGET
    PRINT BUDGET
 UBDSV1 SAVING "         STORAGE" ON UNIT   9 AT TIME STEP 66, STRESS PERIOD   1
 UBDSV2 SAVING "   CONSTANT HEAD" ON UNIT   9 AT TIME STEP 66, STRESS PERIOD   1
 UBDSV1 SAVING "FLOW RIGHT FACE " ON UNIT   9 AT TIME STEP 66, STRESS PERIOD   1
 UBDSV1 SAVING "FLOW FRONT FACE " ON UNIT   9 AT TIME STEP 66, STRESS PERIOD   1
 UBDSV4 SAVING "   RIVER LEAKAGE" ON UNIT   9 AT TIME STEP 66, STRESS PERIOD   1
 UBDSV3 SAVING "        RECHARGE" ON UNIT   9 AT TIME STEP 66, STRESS PERIOD   1

 HEAD WILL BE SAVED ON UNIT   37 AT END OF TIME STEP   66, STRESS PERIOD    1

 DRAWDOWN WILL BE SAVED ON UNIT   38 AT END OF TIME STEP   66, STRESS PERIOD    1
1
  VOLUMETRIC BUDGET FOR ENTIRE MODEL AT END OF TIME STEP   66, STRESS PERIOD   1
  ------------------------------------------------------------------------------

     CUMULATIVE VOLUMES      L**3       RATES FOR THIS TIME STEP      L**3/T
     ------------------                 ------------------------

           IN:                                      IN:
           ---                                      ---
             STORAGE =    61420008.0000               STORAGE =      910579.0000
       CONSTANT HEAD =           0.0000         CONSTANT HEAD =           0.0000
       RIVER LEAKAGE =   106955824.0000         RIVER LEAKAGE =      680764.3750
            RECHARGE =        1010.1921              RECHARGE =       4.3868E-06

            TOTAL IN =   168376832.0000              TOTAL IN =     1591343.3750

          OUT:                                     OUT:
          ----                                     ----
             STORAGE =   168140592.0000               STORAGE =     1585521.5000
       CONSTANT HEAD =           0.0000         CONSTANT HEAD =           0.0000
       RIVER LEAKAGE =      258373.4844         RIVER LEAKAGE =        6014.5317
            RECHARGE =           0.0000              RECHARGE =           0.0000

           TOTAL OUT =   168398960.0000             TOTAL OUT =     1591536.0000

            IN - OUT =      -22128.0000              IN - OUT =        -192.6250

 PERCENT DISCREPANCY =          -0.01     PERCENT DISCREPANCY =          -0.01






         TIME SUMMARY AT END OF TIME STEP   66 IN STRESS PERIOD    1
                    SECONDS     MINUTES      HOURS       DAYS        YEARS
                    -----------------------------------------------------------
   TIME STEP LENGTH  86400.      1440.0      24.000      1.0000     2.73785E-03
 STRESS PERIOD TIME 5.70240E+06  95040.      1584.0      66.000     0.18070    
         TOTAL TIME 5.70240E+06  95040.      1584.0      66.000     0.18070    
1
 
 SOLVING FOR HEAD 
                                                   Max.-Head-Change                        Max.-Flux-Residual
  Residual-Control   Outer-Iter.   Inner-Iter.     Column Row Layer    Max.-Head-Change    Column Row Layer    Max.-Flux-Residual            L2-New               L2-Old           Solver-Max-Delh
          0                 1           2            58   12     1       0.2167755977E+00      34  106    1       0.1087651419E+06      0.1883585555E+06      0.8100064583E+02      0.2167755977E+00
          0                 2           2            63    9     1       0.9768294178E-01      34  106    1      -0.1087679350E+05      0.1883618562E+05      0.1883585555E+06      0.9768294178E-01
          0                 3           2            63    9     1       0.9761503345E-01      24  112    1      -0.2178747543E+04      0.2373626405E+04      0.1883618562E+05      0.9761503345E-01

    ------------------------------------------------
       NWT REQUIRED            3 OUTER ITERATIONS 
       AND A TOTAL OF          6 INNER ITERATIONS.
    ------------------------------------------------

 OUTPUT CONTROL FOR STRESS PERIOD    1   TIME STEP   67
    SAVE HEAD FOR ALL LAYERS
    SAVE DRAWDOWN FOR ALL LAYERS
    SAVE BUDGET
    PRINT BUDGET
 UBDSV1 SAVING "         STORAGE" ON UNIT   9 AT TIME STEP 67, STRESS PERIOD   1
 UBDSV2 SAVING "   CONSTANT HEAD" ON UNIT   9 AT TIME STEP 67, STRESS PERIOD   1
 UBDSV1 SAVING "FLOW RIGHT FACE " ON UNIT   9 AT TIME STEP 67, STRESS PERIOD   1
 UBDSV1 SAVING "FLOW FRONT FACE " ON UNIT   9 AT TIME STEP 67, STRESS PERIOD   1
 UBDSV4 SAVING "   RIVER LEAKAGE" ON UNIT   9 AT TIME STEP 67, STRESS PERIOD   1
 UBDSV3 SAVING "        RECHARGE" ON UNIT   9 AT TIME STEP 67, STRESS PERIOD   1

 HEAD WILL BE SAVED ON UNIT   37 AT END OF TIME STEP   67, STRESS PERIOD    1

 DRAWDOWN WILL BE SAVED ON UNIT   38 AT END OF TIME STEP   67, STRESS PERIOD    1
1
  VOLUMETRIC BUDGET FOR ENTIRE MODEL AT END OF TIME STEP   67, STRESS PERIOD   1
  ------------------------------------------------------------------------------

     CUMULATIVE VOLUMES      L**3       RATES FOR THIS TIME STEP      L**3/T
     ------------------                 ------------------------

           IN:                                      IN:
           ---                                      ---
             STORAGE =    62330004.0000               STORAGE =      909997.2500
       CONSTANT HEAD =           0.0000         CONSTANT HEAD =           0.0000
       RIVER LEAKAGE =   107632424.0000         RIVER LEAKAGE =      676602.5000
            RECHARGE =        1010.1921              RECHARGE =       3.5006E-06

            TOTAL IN =   169963440.0000              TOTAL IN =     1586599.7500

          OUT:                                     OUT:
          ----                                     ----
             STORAGE =   169721408.0000               STORAGE =     1580821.8750
       CONSTANT HEAD =           0.0000         CONSTANT HEAD =           0.0000
       RIVER LEAKAGE =      264390.2812         RIVER LEAKAGE =        6016.7935
            RECHARGE =           0.0000              RECHARGE =           0.0000

           TOTAL OUT =   169985792.0000             TOTAL OUT =     1586838.6250

            IN - OUT =      -22352.0000              IN - OUT =        -238.8750

 PERCENT DISCREPANCY =          -0.01     PERCENT DISCREPANCY =          -0.02






         TIME SUMMARY AT END OF TIME STEP   67 IN STRESS PERIOD    1
                    SECONDS     MINUTES      HOURS       DAYS        YEARS
                    -----------------------------------------------------------
   TIME STEP LENGTH  86400.      1440.0      24.000      1.0000     2.73785E-03
 STRESS PERIOD TIME 5.78880E+06  96480.      1608.0      67.000     0.18344    
         TOTAL TIME 5.78880E+06  96480.      1608.0      67.000     0.18344    
1
 
 SOLVING FOR HEAD 
                                                   Max.-Head-Change                        Max.-Flux-Residual
  Residual-Control   Outer-Iter.   Inner-Iter.     Column Row Layer    Max.-Head-Change    Column Row Layer    Max.-Flux-Residual            L2-New               L2-Old           Solver-Max-Delh
          0                 1           2            58   12     1       0.2167703291E+00      34  106    1       0.1086796248E+06      0.1882017471E+06      0.1193212395E+03      0.2167703291E+00
          0                 2           2            63    9     1       0.9894021346E-01      34  106    1      -0.1086824129E+05      0.1882050454E+05      0.1882017471E+06      0.9894021346E-01
          0                 3           2            63    9     1       0.9887040664E-01      34  106    1      -0.5434138677E+03      0.9411101947E+03      0.1882050454E+05      0.9887040664E-01

    ------------------------------------------------
       NWT REQUIRED            3 OUTER ITERATIONS 
       AND A TOTAL OF          6 INNER ITERATIONS.
    ------------------------------------------------

 OUTPUT CONTROL FOR STRESS PERIOD    1   TIME STEP   68
    SAVE HEAD FOR ALL LAYERS
    SAVE DRAWDOWN FOR ALL LAYERS
    SAVE BUDGET
    PRINT BUDGET
 UBDSV1 SAVING "         STORAGE" ON UNIT   9 AT TIME STEP 68, STRESS PERIOD   1
 UBDSV2 SAVING "   CONSTANT HEAD" ON UNIT   9 AT TIME STEP 68, STRESS PERIOD   1
 UBDSV1 SAVING "FLOW RIGHT FACE " ON UNIT   9 AT TIME STEP 68, STRESS PERIOD   1
 UBDSV1 SAVING "FLOW FRONT FACE " ON UNIT   9 AT TIME STEP 68, STRESS PERIOD   1
 UBDSV4 SAVING "   RIVER LEAKAGE" ON UNIT   9 AT TIME STEP 68, STRESS PERIOD   1
 UBDSV3 SAVING "        RECHARGE" ON UNIT   9 AT TIME STEP 68, STRESS PERIOD   1

 HEAD WILL BE SAVED ON UNIT   37 AT END OF TIME STEP   68, STRESS PERIOD    1

 DRAWDOWN WILL BE SAVED ON UNIT   38 AT END OF TIME STEP   68, STRESS PERIOD    1
1
  VOLUMETRIC BUDGET FOR ENTIRE MODEL AT END OF TIME STEP   68, STRESS PERIOD   1
  ------------------------------------------------------------------------------

     CUMULATIVE VOLUMES      L**3       RATES FOR THIS TIME STEP      L**3/T
     ------------------                 ------------------------

           IN:                                      IN:
           ---                                      ---
             STORAGE =    63239420.0000               STORAGE =      909416.0625
       CONSTANT HEAD =           0.0000         CONSTANT HEAD =           0.0000
       RIVER LEAKAGE =   108309008.0000         RIVER LEAKAGE =      676583.2500
            RECHARGE =        1010.1921              RECHARGE =       2.7938E-06

            TOTAL IN =   171549440.0000              TOTAL IN =     1585999.2500

          OUT:                                     OUT:
          ----                                     ----
             STORAGE =   171301520.0000               STORAGE =     1580108.7500
       CONSTANT HEAD =           0.0000         CONSTANT HEAD =           0.0000
       RIVER LEAKAGE =      270409.3125         RIVER LEAKAGE =        6019.0278
            RECHARGE =           0.0000              RECHARGE =           0.0000

           TOTAL OUT =   171571936.0000             TOTAL OUT =     1586127.7500

            IN - OUT =      -22496.0000              IN - OUT =        -128.5000

 PERCENT DISCREPANCY =          -0.01     PERCENT DISCREPANCY =          -0.01






         TIME SUMMARY AT END OF TIME STEP   68 IN STRESS PERIOD    1
                    SECONDS     MINUTES      HOURS       DAYS        YEARS
                    -----------------------------------------------------------
   TIME STEP LENGTH  86400.      1440.0      24.000      1.0000     2.73785E-03
 STRESS PERIOD TIME 5.87520E+06  97920.      1632.0      68.000     0.18617    
         TOTAL TIME 5.87520E+06  97920.      1632.0      68.000     0.18617    
1
 
 SOLVING FOR HEAD 
                                                   Max.-Head-Change                        Max.-Flux-Residual
  Residual-Control   Outer-Iter.   Inner-Iter.     Column Row Layer    Max.-Head-Change    Column Row Layer    Max.-Flux-Residual            L2-New               L2-Old           Solver-Max-Delh
          0                 1           2            58   12     1       0.2167654240E+00      34  106    1       0.1085939622E+06      0.1880911537E+06      0.4867966103E+02      0.2167654240E+00
          0                 2           2            63    9     1       0.1001889290E+00      34  106    1      -0.1085967453E+05      0.1880944492E+05      0.1880911537E+06      0.1001889290E+00
          1                 2           0            63    9     1       0.7013224911E-01      37   82    1      -0.5327745653E+05      0.5328575816E+05      0.1880944492E+05      0.1001889290E+00
          2                 2           0            63    9     1       0.4909257354E-01      37   82    1      -0.2558755957E+05      0.2635200016E+05      0.5328575816E+05      0.1001889290E+00
          0                 3           2            63    9     1       0.1001537838E+00      37   82    1      -0.6204649432E+04      0.1181412500E+05      0.2635200016E+05      0.1001537838E+00
          0                 4           2            63    9     1       0.1000820427E+00      37   82    1      -0.3102335301E+03      0.5906974318E+03      0.1181412500E+05      0.1000820427E+00

    ------------------------------------------------
       NWT REQUIRED            4 OUTER ITERATIONS 
       AND A TOTAL OF          8 INNER ITERATIONS.
    ------------------------------------------------

 OUTPUT CONTROL FOR STRESS PERIOD    1   TIME STEP   69
    SAVE HEAD FOR ALL LAYERS
    SAVE DRAWDOWN FOR ALL LAYERS
    SAVE BUDGET
    PRINT BUDGET
 UBDSV1 SAVING "         STORAGE" ON UNIT   9 AT TIME STEP 69, STRESS PERIOD   1
 UBDSV2 SAVING "   CONSTANT HEAD" ON UNIT   9 AT TIME STEP 69, STRESS PERIOD   1
 UBDSV1 SAVING "FLOW RIGHT FACE " ON UNIT   9 AT TIME STEP 69, STRESS PERIOD   1
 UBDSV1 SAVING "FLOW FRONT FACE " ON UNIT   9 AT TIME STEP 69, STRESS PERIOD   1
 UBDSV4 SAVING "   RIVER LEAKAGE" ON UNIT   9 AT TIME STEP 69, STRESS PERIOD   1
 UBDSV3 SAVING "        RECHARGE" ON UNIT   9 AT TIME STEP 69, STRESS PERIOD   1

 HEAD WILL BE SAVED ON UNIT   37 AT END OF TIME STEP   69, STRESS PERIOD    1

 DRAWDOWN WILL BE SAVED ON UNIT   38 AT END OF TIME STEP   69, STRESS PERIOD    1
1
  VOLUMETRIC BUDGET FOR ENTIRE MODEL AT END OF TIME STEP   69, STRESS PERIOD   1
  ------------------------------------------------------------------------------

     CUMULATIVE VOLUMES      L**3       RATES FOR THIS TIME STEP      L**3/T
     ------------------                 ------------------------

           IN:                                      IN:
           ---                                      ---
             STORAGE =    64148148.0000               STORAGE =      908729.6875
       CONSTANT HEAD =           0.0000         CONSTANT HEAD =           0.0000
       RIVER LEAKAGE =   108985584.0000         RIVER LEAKAGE =      676580.0000
            RECHARGE =        1010.1921              RECHARGE =       2.2299E-06

            TOTAL IN =   173134736.0000              TOTAL IN =     1585309.7500

          OUT:                                     OUT:
          ----                                     ----
             STORAGE =   172880896.0000               STORAGE =     1579371.1250
       CONSTANT HEAD =           0.0000         CONSTANT HEAD =           0.0000
       RIVER LEAKAGE =      276430.5625         RIVER LEAKAGE =        6021.2632
            RECHARGE =           0.0000              RECHARGE =           0.0000

           TOTAL OUT =   173157328.0000             TOTAL OUT =     1585392.3750

            IN - OUT =      -22592.0000              IN - OUT =         -82.6250

 PERCENT DISCREPANCY =          -0.01     PERCENT DISCREPANCY =          -0.01






         TIME SUMMARY AT END OF TIME STEP   69 IN STRESS PERIOD    1
                    SECONDS     MINUTES      HOURS       DAYS        YEARS
                    -----------------------------------------------------------
   TIME STEP LENGTH  86400.      1440.0      24.000      1.0000     2.73785E-03
 STRESS PERIOD TIME 5.96160E+06  99360.      1656.0      69.000     0.18891    
         TOTAL TIME 5.96160E+06  99360.      1656.0      69.000     0.18891    
1
 
 SOLVING FOR HEAD 
                                                   Max.-Head-Change                        Max.-Flux-Residual
  Residual-Control   Outer-Iter.   Inner-Iter.     Column Row Layer    Max.-Head-Change    Column Row Layer    Max.-Flux-Residual            L2-New               L2-Old           Solver-Max-Delh
          0                 1           2            58   12     1       0.2167602516E+00      34  106    1       0.1085081545E+06      0.1879805290E+06      0.3618289735E+02      0.2167602516E+00
          0                 2           2            63    9     1       0.1013937055E+00      34  106    1      -0.1085109325E+05      0.1879838033E+05      0.1879805290E+06      0.1013937055E+00
          0                 3           2            63    9     1       0.1013200689E+00      34  106    1      -0.5425564583E+03      0.9399694279E+03      0.1879838033E+05      0.1013200689E+00

    ------------------------------------------------
       NWT REQUIRED            3 OUTER ITERATIONS 
       AND A TOTAL OF          6 INNER ITERATIONS.
    ------------------------------------------------

 OUTPUT CONTROL FOR STRESS PERIOD    1   TIME STEP   70
    SAVE HEAD FOR ALL LAYERS
    SAVE DRAWDOWN FOR ALL LAYERS
    SAVE BUDGET
    PRINT BUDGET
 UBDSV1 SAVING "         STORAGE" ON UNIT   9 AT TIME STEP 70, STRESS PERIOD   1
 UBDSV2 SAVING "   CONSTANT HEAD" ON UNIT   9 AT TIME STEP 70, STRESS PERIOD   1
 UBDSV1 SAVING "FLOW RIGHT FACE " ON UNIT   9 AT TIME STEP 70, STRESS PERIOD   1
 UBDSV1 SAVING "FLOW FRONT FACE " ON UNIT   9 AT TIME STEP 70, STRESS PERIOD   1
 UBDSV4 SAVING "   RIVER LEAKAGE" ON UNIT   9 AT TIME STEP 70, STRESS PERIOD   1
 UBDSV3 SAVING "        RECHARGE" ON UNIT   9 AT TIME STEP 70, STRESS PERIOD   1

 HEAD WILL BE SAVED ON UNIT   37 AT END OF TIME STEP   70, STRESS PERIOD    1

 DRAWDOWN WILL BE SAVED ON UNIT   38 AT END OF TIME STEP   70, STRESS PERIOD    1
1
  VOLUMETRIC BUDGET FOR ENTIRE MODEL AT END OF TIME STEP   70, STRESS PERIOD   1
  ------------------------------------------------------------------------------

     CUMULATIVE VOLUMES      L**3       RATES FOR THIS TIME STEP      L**3/T
     ------------------                 ------------------------

           IN:                                      IN:
           ---                                      ---
             STORAGE =    65056404.0000               STORAGE =      908255.5000
       CONSTANT HEAD =           0.0000         CONSTANT HEAD =           0.0000
       RIVER LEAKAGE =   109662160.0000         RIVER LEAKAGE =      676576.7500
            RECHARGE =        1010.1921              RECHARGE =       1.7800E-06

            TOTAL IN =   174719568.0000              TOTAL IN =     1584832.2500

          OUT:                                     OUT:
          ----                                     ----
             STORAGE =   174459840.0000               STORAGE =     1578944.7500
       CONSTANT HEAD =           0.0000         CONSTANT HEAD =           0.0000
       RIVER LEAKAGE =      282454.0938         RIVER LEAKAGE =        6023.5269
            RECHARGE =           0.0000              RECHARGE =           0.0000

           TOTAL OUT =   174742288.0000             TOTAL OUT =     1584968.2500

            IN - OUT =      -22720.0000              IN - OUT =        -136.0000

 PERCENT DISCREPANCY =          -0.01     PERCENT DISCREPANCY =          -0.01






         TIME SUMMARY AT END OF TIME STEP   70 IN STRESS PERIOD    1
                    SECONDS     MINUTES      HOURS       DAYS        YEARS
                    -----------------------------------------------------------
   TIME STEP LENGTH  86400.      1440.0      24.000      1.0000     2.73785E-03
 STRESS PERIOD TIME 6.04800E+06 1.00800E+05  1680.0      70.000     0.19165    
         TOTAL TIME 6.04800E+06 1.00800E+05  1680.0      70.000     0.19165    
1
 
 SOLVING FOR HEAD 
                                                   Max.-Head-Change                        Max.-Flux-Residual
  Residual-Control   Outer-Iter.   Inner-Iter.     Column Row Layer    Max.-Head-Change    Column Row Layer    Max.-Flux-Residual            L2-New               L2-Old           Solver-Max-Delh
          0                 1           2            58   12     1       0.2167549839E+00      34  106    1       0.1084221798E+06      0.1878698743E+06      0.4795264883E+02      0.2167549839E+00
          0                 2           2            63    9     1       0.1026246076E+00      34  106    1      -0.1084249528E+05      0.1878731454E+05      0.1878698743E+06      0.1026246076E+00
          0                 3           2            63    9     1       0.1025490148E+00      34  106    1      -0.5421265568E+03      0.9394172118E+03      0.1878731454E+05      0.1025490148E+00

    ------------------------------------------------
       NWT REQUIRED            3 OUTER ITERATIONS 
       AND A TOTAL OF          6 INNER ITERATIONS.
    ------------------------------------------------

 OUTPUT CONTROL FOR STRESS PERIOD    1   TIME STEP   71
    SAVE HEAD FOR ALL LAYERS
    SAVE DRAWDOWN FOR ALL LAYERS
    SAVE BUDGET
    PRINT BUDGET
 UBDSV1 SAVING "         STORAGE" ON UNIT   9 AT TIME STEP 71, STRESS PERIOD   1
 UBDSV2 SAVING "   CONSTANT HEAD" ON UNIT   9 AT TIME STEP 71, STRESS PERIOD   1
 UBDSV1 SAVING "FLOW RIGHT FACE " ON UNIT   9 AT TIME STEP 71, STRESS PERIOD   1
 UBDSV1 SAVING "FLOW FRONT FACE " ON UNIT   9 AT TIME STEP 71, STRESS PERIOD   1
 UBDSV4 SAVING "   RIVER LEAKAGE" ON UNIT   9 AT TIME STEP 71, STRESS PERIOD   1
 UBDSV3 SAVING "        RECHARGE" ON UNIT   9 AT TIME STEP 71, STRESS PERIOD   1

 HEAD WILL BE SAVED ON UNIT   37 AT END OF TIME STEP   71, STRESS PERIOD    1

 DRAWDOWN WILL BE SAVED ON UNIT   38 AT END OF TIME STEP   71, STRESS PERIOD    1
1
  VOLUMETRIC BUDGET FOR ENTIRE MODEL AT END OF TIME STEP   71, STRESS PERIOD   1
  ------------------------------------------------------------------------------

     CUMULATIVE VOLUMES      L**3       RATES FOR THIS TIME STEP      L**3/T
     ------------------                 ------------------------

           IN:                                      IN:
           ---                                      ---
             STORAGE =    65964080.0000               STORAGE =      907676.0000
       CONSTANT HEAD =           0.0000         CONSTANT HEAD =           0.0000
       RIVER LEAKAGE =   110338736.0000         RIVER LEAKAGE =      676573.5625
            RECHARGE =        1010.1921              RECHARGE =       1.4210E-06

            TOTAL IN =   176303824.0000              TOTAL IN =     1584249.5000

          OUT:                                     OUT:
          ----                                     ----
             STORAGE =   176038192.0000               STORAGE =     1578359.5000
       CONSTANT HEAD =           0.0000         CONSTANT HEAD =           0.0000
       RIVER LEAKAGE =      288479.8438         RIVER LEAKAGE =        6025.7637
            RECHARGE =           0.0000              RECHARGE =           0.0000

           TOTAL OUT =   176326672.0000             TOTAL OUT =     1584385.2500

            IN - OUT =      -22848.0000              IN - OUT =        -135.7500

 PERCENT DISCREPANCY =          -0.01     PERCENT DISCREPANCY =          -0.01






         TIME SUMMARY AT END OF TIME STEP   71 IN STRESS PERIOD    1
                    SECONDS     MINUTES      HOURS       DAYS        YEARS
                    -----------------------------------------------------------
   TIME STEP LENGTH  86400.      1440.0      24.000      1.0000     2.73785E-03
 STRESS PERIOD TIME 6.13440E+06 1.02240E+05  1704.0      71.000     0.19439    
         TOTAL TIME 6.13440E+06 1.02240E+05  1704.0      71.000     0.19439    
1
 
 SOLVING FOR HEAD 
                                                   Max.-Head-Change                        Max.-Flux-Residual
  Residual-Control   Outer-Iter.   Inner-Iter.     Column Row Layer    Max.-Head-Change    Column Row Layer    Max.-Flux-Residual            L2-New               L2-Old           Solver-Max-Delh
          0                 1           2            38   82     1       0.3502302763E+03      34  106    1       0.1083360624E+06      0.2628842809E+06      0.4794618391E+02      0.3502302763E+03
          1                 1           0            38   82     1       0.2451611892E+03      38   82    1      -0.1024744328E+09      0.1726076521E+09      0.2628842809E+06      0.3502302763E+03
          2                 1           0            38   82     1       0.1716128295E+03      38   82    1      -0.7657997384E+08      0.1280830301E+09      0.1726076521E+09      0.3502302763E+03
          3                 1           0            38   82     1       0.1201289786E+03      38   82    1      -0.5845385285E+08      0.9704843250E+08      0.1280830301E+09      0.3502302763E+03
          4                 1           0            38   82     1       0.8409028361E+02      38   82    1      -0.4576556838E+08      0.7565820421E+08      0.9704843250E+08      0.3502302763E+03
          5                 1           0            38   82     1       0.5886319752E+02      38   82    1      -0.3688397120E+08      0.6102972498E+08      0.7565820421E+08      0.3502302763E+03
          6                 1           0            38   82     1       0.4120423757E+02      38   82    1      -0.3067171946E+08      0.5111311914E+08      0.6102972498E+08      0.3502302763E+03
          7                 1           0            38   82     1       0.2884296580E+02      38   82    1      -0.2632360574E+08      0.4443887422E+08      0.5111311914E+08      0.3502302763E+03
          8                 1           0            38   82     1       0.2019007572E+02      38   82    1      -0.2327993831E+08      0.3581334498E+08      0.4443887422E+08      0.3502302763E+03
          9                 1           0            38   82     1       0.1413305276E+02      38   82    1      -0.1728490341E+08      0.2595568930E+08      0.3581334498E+08      0.3502302763E+03
                                                   Max.-Head-Change                        Max.-Flux-Residual
  Residual-Control   Outer-Iter.   Inner-Iter.     Column Row Layer    Max.-Head-Change    Column Row Layer    Max.-Flux-Residual            L2-New               L2-Old           Solver-Max-Delh
         10                 1           0            38   82     1       0.9893136765E+01      38   82    1      -0.1122587857E+08      0.1670458742E+08      0.2595568930E+08      0.3502302763E+03
         11                 1           0            38   82     1       0.6925195618E+01      38   82    1      -0.6985047310E+07      0.1032681357E+08      0.1670458742E+08      0.3502302763E+03
         12                 1           0            38   82     1       0.4847636850E+01      38   82    1      -0.4016696869E+07      0.6062906735E+07      0.1032681357E+08      0.3502302763E+03
         13                 1           0            38   82     1       0.3393345737E+01      37   79    1      -0.2297937448E+07      0.3194708975E+07      0.6062906735E+07      0.3502302763E+03
         14                 1           0            38   82     1       0.2375341976E+01      37   79    1      -0.1132875934E+07      0.1281334391E+07      0.3194708975E+07      0.3502302763E+03
         15                 1           0            38   82     1       0.1662739355E+01      37   79    1      -0.3173490389E+06      0.4100980833E+06      0.1281334391E+07      0.3502302763E+03
          0                 2           2            38   82     1       0.3502211666E+03      34  106    1       0.1077702972E+06      0.2615672569E+06      0.4100980833E+06      0.3502211666E+03
          1                 2           0            38   82     1       0.2451548124E+03      38   82    1      -0.1028819726E+09      0.1733106807E+09      0.2615672569E+06      0.3502211666E+03
          2                 2           0            38   82     1       0.1716083658E+03      38   82    1      -0.7698818719E+08      0.1287860595E+09      0.1733106807E+09      0.3502211666E+03
          3                 2           0            38   82     1       0.1201258540E+03      38   82    1      -0.5886253770E+08      0.9774360429E+08      0.1287860595E+09      0.3502211666E+03
                                                   Max.-Head-Change                        Max.-Flux-Residual
  Residual-Control   Outer-Iter.   Inner-Iter.     Column Row Layer    Max.-Head-Change    Column Row Layer    Max.-Flux-Residual            L2-New               L2-Old           Solver-Max-Delh
          4                 2           0            38   82     1       0.8408809636E+02      38   82    1      -0.4617458327E+08      0.7634068958E+08      0.9774360429E+08      0.3502211666E+03
          5                 2           0            38   82     1       0.5886166645E+02      38   82    1      -0.3729303057E+08      0.6169395779E+08      0.7634068958E+08      0.3502211666E+03
          6                 2           0            38   82     1       0.4120316581E+02      38   82    1      -0.3108075387E+08      0.5175432237E+08      0.6169395779E+08      0.3502211666E+03
          7                 2           0            38   82     1       0.2884221558E+02      38   82    1      -0.2673275325E+08      0.4505434159E+08      0.5175432237E+08      0.3502211666E+03
          8                 2           0            38   82     1       0.2018955056E+02      38   82    1      -0.2368915287E+08      0.3715623391E+08      0.4505434159E+08      0.3502211666E+03
          9                 2           0            38   82     1       0.1413268515E+02      38   82    1      -0.1894781270E+08      0.2850516245E+08      0.3715623391E+08      0.3502211666E+03
         10                 2           0            38   82     1       0.9892879438E+01      38   82    1      -0.1288871841E+08      0.1923480895E+08      0.2850516245E+08      0.3502211666E+03
         11                 2           0            38   82     1       0.6925015489E+01      38   82    1      -0.8647840512E+07      0.1280821636E+08      0.1923480895E+08      0.3502211666E+03
         12                 2           0            38   82     1       0.4847510760E+01      38   82    1      -0.5679464193E+07      0.8413141625E+07      0.1280821636E+08      0.3502211666E+03
         13                 2           0            38   82     1       0.3393257474E+01      37   79    1      -0.3629901817E+07      0.5487185187E+07      0.8413141625E+07      0.3502211666E+03
                                                   Max.-Head-Change                        Max.-Flux-Residual
  Residual-Control   Outer-Iter.   Inner-Iter.     Column Row Layer    Max.-Head-Change    Column Row Layer    Max.-Flux-Residual            L2-New               L2-Old           Solver-Max-Delh
         14                 2           0            38   82     1       0.2375280191E+01      37   79    1      -0.2464841074E+07      0.3479817764E+07      0.5487185187E+07      0.3502211666E+03
         15                 2           0            38   82     1       0.1662696106E+01      37   79    1      -0.1649319643E+07      0.2102354659E+07      0.3479817764E+07      0.3502211666E+03
         16                 2           0            38   82     1       0.1163887254E+01      37   79    1      -0.1078462565E+07      0.1201490121E+07      0.2102354659E+07      0.3502211666E+03
         17                 2           0            38   82     1       0.8147210640E+00      37   79    1      -0.6788664949E+06      0.7267365506E+06      0.1201490121E+07      0.3502211666E+03
         18                 2           0            38   82     1       0.5703047351E+00      37   79    1      -0.3991511507E+06      0.4761841577E+06      0.7267365506E+06      0.3502211666E+03
         19                 2           0            38   82     1       0.3992133078E+00      37   79    1      -0.2033513442E+06      0.3299726722E+06      0.4761841577E+06      0.3502211666E+03
          0                 3           2            38   82     1       0.3502190264E+03      34  106    1       0.1076351664E+06      0.2683192153E+06      0.3299726722E+06      0.3502190264E+03
          1                 3           0            38   82     1       0.2451533143E+03      38   82    1      -0.1029798319E+09      0.1602898464E+09      0.2683192153E+06      0.3502190264E+03
          2                 3           0            38   82     1       0.1716073171E+03      38   82    1      -0.7708620473E+08      0.1186260793E+09      0.1602898464E+09      0.3502190264E+03
          3                 3           0            38   82     1       0.1201251199E+03      38   82    1      -0.5896066602E+08      0.8957818268E+08      0.1186260793E+09      0.3502190264E+03
                                                   Max.-Head-Change                        Max.-Flux-Residual
  Residual-Control   Outer-Iter.   Inner-Iter.     Column Row Layer    Max.-Head-Change    Column Row Layer    Max.-Flux-Residual            L2-New               L2-Old           Solver-Max-Delh
          4                 3           0            38   82     1       0.8408758252E+02      38   82    1      -0.4627278914E+08      0.6958436993E+08      0.8957818268E+08      0.3502190264E+03
          5                 3           0            38   82     1       0.5886130676E+02      38   82    1      -0.3739127547E+08      0.5594354755E+08      0.6958436993E+08      0.3502190264E+03
          6                 3           0            38   82     1       0.4120291403E+02      38   82    1      -0.3117896240E+08      0.4673116829E+08      0.5594354755E+08      0.3502190264E+03
          7                 3           0            38   82     1       0.2884203933E+02      38   82    1      -0.2683098836E+08      0.4056196271E+08      0.4673116829E+08      0.3502190264E+03
          8                 3           0            38   82     1       0.2018942719E+02      38   82    1      -0.2378740658E+08      0.3282784933E+08      0.4056196271E+08      0.3502190264E+03
          9                 3           0            38   82     1       0.1413259879E+02      38   82    1      -0.1934708470E+08      0.2416750610E+08      0.3282784933E+08      0.3502190264E+03
         10                 3           0            38   82     1       0.9892818985E+01      38   82    1      -0.1328796690E+08      0.1624968990E+08      0.2416750610E+08      0.3502190264E+03
         11                 3           0            38   82     1       0.6924973172E+01      38   82    1      -0.9047077238E+07      0.1076667017E+08      0.1624968990E+08      0.3502190264E+03
         12                 3           0            38   82     1       0.4847481138E+01      38   82    1      -0.6078692680E+07      0.7026547259E+07      0.1076667017E+08      0.3502190264E+03
         13                 3           0            38   82     1       0.3393236739E+01      38   82    1      -0.4000933171E+07      0.4571432691E+07      0.7026547259E+07      0.3502190264E+03
                                                   Max.-Head-Change                        Max.-Flux-Residual
  Residual-Control   Outer-Iter.   Inner-Iter.     Column Row Layer    Max.-Head-Change    Column Row Layer    Max.-Flux-Residual            L2-New               L2-Old           Solver-Max-Delh
         14                 3           0            38   82     1       0.2375265677E+01      38   82    1      -0.2546536229E+07      0.2911763393E+07      0.4571432691E+07      0.3502190264E+03
         15                 3           0            38   82     1       0.1662685945E+01      38   82    1      -0.1528483555E+07      0.1755031371E+07      0.2911763393E+07      0.3502190264E+03
         16                 3           0            38   82     1       0.1163880142E+01      38   82    1      -0.8158590271E+06      0.9571220973E+06      0.1755031371E+07      0.3502190264E+03
         17                 3           0            38   82     1       0.8147160854E+00      38   82    1      -0.3170279087E+06      0.4386597284E+06      0.9571220973E+06      0.3502190264E+03
          0                 4           2            38   82     1       0.3502146596E+03      34  106    1       0.1073597350E+06      0.2676590937E+06      0.4386597284E+06      0.3502146596E+03
          1                 4           0            38   82     1       0.2451502575E+03      38   82    1      -0.1031795437E+09      0.1606124126E+09      0.2676590937E+06      0.3502146596E+03
          2                 4           0            38   82     1       0.1716051773E+03      38   82    1      -0.7728623943E+08      0.1189487136E+09      0.1606124126E+09      0.3502146596E+03
          3                 4           0            38   82     1       0.1201236221E+03      38   82    1      -0.5916092676E+08      0.8989686369E+08      0.1189487136E+09      0.3502146596E+03
          4                 4           0            38   82     1       0.8408653403E+02      38   82    1      -0.4647320812E+08      0.6989660111E+08      0.8989686369E+08      0.3502146596E+03
          5                 4           0            38   82     1       0.5886057282E+02      38   82    1      -0.3759180522E+08      0.5624647386E+08      0.6989660111E+08      0.3502146596E+03
                                                   Max.-Head-Change                        Max.-Flux-Residual
  Residual-Control   Outer-Iter.   Inner-Iter.     Column Row Layer    Max.-Head-Change    Column Row Layer    Max.-Flux-Residual            L2-New               L2-Old           Solver-Max-Delh
          6                 4           0            38   82     1       0.4120240027E+02      38   82    1      -0.3137938680E+08      0.4702216679E+08      0.5624647386E+08      0.3502146596E+03
          7                 4           0            38   82     1       0.2884167970E+02      38   82    1      -0.2703146698E+08      0.4083955680E+08      0.4702216679E+08      0.3502146596E+03
          8                 4           0            38   82     1       0.2018917545E+02      38   82    1      -0.2398792316E+08      0.3353399385E+08      0.4083955680E+08      0.3502146596E+03
          9                 4           0            38   82     1       0.1413242257E+02      38   82    1      -0.2016193220E+08      0.2524634977E+08      0.3353399385E+08      0.3502146596E+03
         10                 4           0            38   82     1       0.9892695632E+01      38   82    1      -0.1410276582E+08      0.1731076119E+08      0.2524634977E+08      0.3502146596E+03
         11                 4           0            38   82     1       0.6924886824E+01      38   82    1      -0.9861852142E+07      0.1181259925E+08      0.1731076119E+08      0.3502146596E+03
         12                 4           0            38   82     1       0.4847420694E+01      38   82    1      -0.6893450766E+07      0.8037035847E+07      0.1181259925E+08      0.3502146596E+03
         13                 4           0            38   82     1       0.3393194428E+01      38   82    1      -0.4815686530E+07      0.5507364746E+07      0.8037035847E+07      0.3502146596E+03
         14                 4           0            38   82     1       0.2375236059E+01      38   82    1      -0.3361290249E+07      0.3841044712E+07      0.5507364746E+07      0.3502146596E+03
         15                 4           0            38   82     1       0.1662665213E+01      38   82    1      -0.2343233682E+07      0.2680209697E+07      0.3841044712E+07      0.3502146596E+03
                                                   Max.-Head-Change                        Max.-Flux-Residual
  Residual-Control   Outer-Iter.   Inner-Iter.     Column Row Layer    Max.-Head-Change    Column Row Layer    Max.-Flux-Residual            L2-New               L2-Old           Solver-Max-Delh
         16                 4           0            38   82     1       0.1163865629E+01      38   82    1      -0.1630606429E+07      0.1870614160E+07      0.2680209697E+07      0.3502146596E+03
         17                 4           0            38   82     1       0.8147059267E+00      38   82    1      -0.1131773403E+07      0.1308190291E+07      0.1870614160E+07      0.3502146596E+03
         18                 4           0            38   82     1       0.5702941390E+00      38   82    1      -0.7825932510E+06      0.9206252998E+06      0.1308190291E+07      0.3502146596E+03
         19                 4           0            38   82     1       0.3992058905E+00      38   82    1      -0.5381685999E+06      0.6579056778E+06      0.9206252998E+06      0.3502146596E+03
         20                 4           0            38   82     1       0.2794441186E+00      38   82    1      -0.3670720579E+06      0.4854066265E+06      0.6579056778E+06      0.3502146596E+03
         21                 4           0            38   82     1       0.1956108797E+00      38   82    1      -0.2473048288E+06      0.3783819653E+06      0.4854066265E+06      0.3502146596E+03
         22                 4           0            38   82     1       0.1369276134E+00      38   82    1      -0.1634679406E+06      0.3175023948E+06      0.3783819653E+06      0.3502146596E+03
          0                 5           2            38   81     1       0.2281466613E+03      34  106    1       0.1073135618E+06      0.2865351873E+06      0.3175023948E+06      0.2281466613E+03
          1                 5           0            38   81     1       0.1597026602E+03      35   83    1      -0.1022047612E+09      0.1156808947E+09      0.2865351873E+06      0.2281466613E+03
          2                 5           0            38   81     1       0.1117918602E+03      35   83    1      -0.7174807834E+08      0.8376758216E+08      0.1156808947E+09      0.2281466613E+03
                                                   Max.-Head-Change                        Max.-Flux-Residual
  Residual-Control   Outer-Iter.   Inner-Iter.     Column Row Layer    Max.-Head-Change    Column Row Layer    Max.-Flux-Residual            L2-New               L2-Old           Solver-Max-Delh
          3                 5           0            38   81     1       0.7825430084E+02      35   83    1      -0.5042840073E+08      0.6142332388E+08      0.8376758216E+08      0.2281466613E+03
          4                 5           0            38   81     1       0.5477800965E+02      35   83    1      -0.3550462666E+08      0.4609351410E+08      0.6142332388E+08      0.2281466613E+03
          5                 5           0            38   81     1       0.3834460611E+02      38   81    1      -0.2530599096E+08      0.3572146150E+08      0.4609351410E+08      0.2281466613E+03
          6                 5           0            38   81     1       0.2684122382E+02      38   81    1      -0.2266161538E+08      0.2883667168E+08      0.3572146150E+08      0.2281466613E+03
          7                 5           0            38   81     1       0.1878885635E+02      38   81    1      -0.2081104060E+08      0.2436532835E+08      0.2883667168E+08      0.2281466613E+03
          8                 5           0            38   81     1       0.1315219922E+02      38   81    1      -0.1595455080E+08      0.1720526782E+08      0.2436532835E+08      0.2281466613E+03
          9                 5           0            38   81     1       0.9206539299E+01      38   81    1      -0.1031507982E+08      0.1035712801E+08      0.1720526782E+08      0.2281466613E+03
         10                 5           0            38   81     1       0.6444577399E+01      38   81    1      -0.6368017396E+07      0.6373880255E+07      0.1035712801E+08      0.2281466613E+03
         11                 5           0            38   81     1       0.4511204103E+01      38   81    1      -0.3605351671E+07      0.3615984689E+07      0.6373880255E+07      0.2281466613E+03
         12                 5           0            38   81     1       0.3157842818E+01      38   81    1      -0.1671621880E+07      0.1694865351E+07      0.3615984689E+07      0.2281466613E+03
                                                   Max.-Head-Change                        Max.-Flux-Residual
  Residual-Control   Outer-Iter.   Inner-Iter.     Column Row Layer    Max.-Head-Change    Column Row Layer    Max.-Flux-Residual            L2-New               L2-Old           Solver-Max-Delh
         13                 5           0            38   81     1       0.2210489935E+01      38   81    1      -0.3180777787E+06      0.4247952206E+06      0.1694865351E+07      0.2281466613E+03
          0                 6           2            38   81     1       0.2281398781E+03      34  106    1       0.1061698365E+06      0.2835953407E+06      0.4247952206E+06      0.2281398781E+03
          1                 6           0            38   81     1       0.1596979120E+03      35   83    1      -0.1031839979E+09      0.1167103949E+09      0.2835953407E+06      0.2281398781E+03
          2                 6           0            38   81     1       0.1117885365E+03      35   83    1      -0.7272863574E+08      0.8480227873E+08      0.1167103949E+09      0.2281398781E+03
          3                 6           0            38   81     1       0.7825197419E+02      35   83    1      -0.5140988262E+08      0.6244372448E+08      0.8480227873E+08      0.2281398781E+03
          4                 6           0            38   81     1       0.5477638100E+02      35   83    1      -0.3648675569E+08      0.4708848833E+08      0.6244372448E+08      0.2281398781E+03
          5                 6           0            38   81     1       0.3834346605E+02      35   83    1      -0.2604056702E+08      0.3667601323E+08      0.4708848833E+08      0.2281398781E+03
          6                 6           0            38   81     1       0.2684042578E+02      38   81    1      -0.2301713215E+08      0.2973451978E+08      0.3667601323E+08      0.2281398781E+03
          7                 6           0            38   81     1       0.1878829772E+02      38   81    1      -0.2116638936E+08      0.2519278438E+08      0.2973451978E+08      0.2281398781E+03
          8                 6           0            38   81     1       0.1315180818E+02      38   81    1      -0.1816584544E+08      0.2010421656E+08      0.2519278438E+08      0.2281398781E+03
                                                   Max.-Head-Change                        Max.-Flux-Residual
  Residual-Control   Outer-Iter.   Inner-Iter.     Column Row Layer    Max.-Head-Change    Column Row Layer    Max.-Flux-Residual            L2-New               L2-Old           Solver-Max-Delh
          9                 6           0            38   81     1       0.9206265571E+01      38   81    1      -0.1252616840E+08      0.1289812632E+08      0.2010421656E+08      0.2281398781E+03
         10                 6           0            38   81     1       0.6444385790E+01      38   81    1      -0.8578961689E+07      0.8583330739E+07      0.1289812632E+08      0.2281398781E+03
         11                 6           0            38   81     1       0.4511069976E+01      38   81    1      -0.5816194949E+07      0.5822653260E+07      0.8583330739E+07      0.2281398781E+03
         12                 6           0            38   81     1       0.3157748930E+01      38   81    1      -0.3882394440E+07      0.3892248250E+07      0.5822653260E+07      0.2281398781E+03
         13                 6           0            38   81     1       0.2210424213E+01      38   81    1      -0.2528800831E+07      0.2544102388E+07      0.3892248250E+07      0.2281398781E+03
         14                 6           0            38   81     1       0.1547296923E+01      38   81    1      -0.1581318017E+07      0.1605895750E+07      0.2544102388E+07      0.2281398781E+03
         15                 6           0            38   81     1       0.1083107828E+01      38   81    1      -0.9180960797E+06      0.9600695592E+06      0.1605895750E+07      0.2281398781E+03
         16                 6           0            38   81     1       0.7581754663E+00      38   81    1      -0.4538485815E+06      0.5340048219E+06      0.9600695592E+06      0.2281398781E+03
          0                 7           2            35   83     1       0.2238456264E+03      38   81    1      -0.1288791849E+06      0.3098988291E+06      0.5340048219E+06      0.2238456264E+03
          1                 7           0            35   83     1       0.1566919358E+03      35   83    1      -0.1035198615E+09      0.1040145581E+09      0.3098988291E+06      0.2238456264E+03
                                                   Max.-Head-Change                        Max.-Flux-Residual
  Residual-Control   Outer-Iter.   Inner-Iter.     Column Row Layer    Max.-Head-Change    Column Row Layer    Max.-Flux-Residual            L2-New               L2-Old           Solver-Max-Delh
          2                 7           0            35   83     1       0.1096843532E+03      35   83    1      -0.7306495239E+08      0.7368760879E+08      0.1040145581E+09      0.2238456264E+03
          3                 7           0            35   83     1       0.7677904592E+02      35   83    1      -0.5174651634E+08      0.5215891035E+08      0.7368760879E+08      0.2238456264E+03
          4                 7           0            35   83     1       0.5374533123E+02      35   83    1      -0.3682361136E+08      0.3709017308E+08      0.5215891035E+08      0.2238456264E+03
          5                 7           0            35   83     1       0.3762173122E+02      35   83    1      -0.2637757805E+08      0.2654386931E+08      0.3709017308E+08      0.2238456264E+03
          6                 7           0            35   83     1       0.2633521140E+02      35   83    1      -0.1906622316E+08      0.1916472504E+08      0.2654386931E+08      0.2238456264E+03
          7                 7           0            35   83     1       0.1843464767E+02      35   83    1      -0.1394857271E+08      0.1400273817E+08      0.1916472504E+08      0.2238456264E+03
          8                 7           0            35   83     1       0.1290425315E+02      35   83    1      -0.9329107999E+07      0.9359131368E+07      0.1400273817E+08      0.2238456264E+03
          9                 7           0            35   83     1       0.9032977050E+01      35   83    1      -0.3794163360E+07      0.3820354837E+07      0.9359131368E+07      0.2238456264E+03
          0                 8           2            35   83     1       0.2238052088E+03      38   81    1      -0.1239384827E+06      0.3104412587E+06      0.3820354837E+07      0.2238052088E+03
          1                 8           0            35   83     1       0.1566636435E+03      35   83    1      -0.1075980825E+09      0.1075980883E+09      0.3104412587E+06      0.2238052088E+03
                                                   Max.-Head-Change                        Max.-Flux-Residual
  Residual-Control   Outer-Iter.   Inner-Iter.     Column Row Layer    Max.-Head-Change    Column Row Layer    Max.-Flux-Residual            L2-New               L2-Old           Solver-Max-Delh
          2                 8           0            35   83     1       0.1096645486E+03      35   83    1      -0.7714867225E+08      0.7714872321E+08      0.1075980883E+09      0.2238052088E+03
          3                 8           0            35   83     1       0.7676518269E+02      35   83    1      -0.5583408544E+08      0.5583429707E+08      0.7714872321E+08      0.2238052088E+03
          4                 8           0            35   83     1       0.5373562697E+02      35   83    1      -0.4091387493E+08      0.4091436539E+08      0.5583429707E+08      0.2238052088E+03
          5                 8           0            35   83     1       0.3761493824E+02      35   83    1      -0.3046972775E+08      0.3047061978E+08      0.4091436539E+08      0.2238052088E+03
          6                 8           0            35   83     1       0.2633045632E+02      35   83    1      -0.2315918227E+08      0.2316059918E+08      0.3047061978E+08      0.2238052088E+03
          7                 8           0            35   83     1       0.1843131911E+02      35   83    1      -0.1804218902E+08      0.1804424415E+08      0.2316059918E+08      0.2238052088E+03
          8                 8           0            35   83     1       0.1290192316E+02      35   83    1      -0.1446049679E+08      0.1446327818E+08      0.1804424415E+08      0.2238052088E+03
          9                 8           0            35   83     1       0.9031346055E+01      35   83    1      -0.1195348310E+08      0.1195703812E+08      0.1446327818E+08      0.2238052088E+03
         10                 8           0            35   83     1       0.6321942131E+01      35   83    1      -0.8958440539E+07      0.8963363211E+07      0.1195703812E+08      0.2238052088E+03
         11                 8           0            35   83     1       0.4425359416E+01      35   83    1      -0.6246694731E+07      0.6253934478E+07      0.8963363211E+07      0.2238052088E+03
                                                   Max.-Head-Change                        Max.-Flux-Residual
  Residual-Control   Outer-Iter.   Inner-Iter.     Column Row Layer    Max.-Head-Change    Column Row Layer    Max.-Flux-Residual            L2-New               L2-Old           Solver-Max-Delh
         12                 8           0            35   83     1       0.3097751539E+01      35   83    1      -0.4348647405E+07      0.4359226097E+07      0.6253934478E+07      0.2238052088E+03
         13                 8           0            35   83     1       0.2168426040E+01      35   83    1      -0.3020099907E+07      0.3035500532E+07      0.4359226097E+07      0.2238052088E+03
         14                 8           0            35   83     1       0.1517898202E+01      35   83    1      -0.2090158621E+07      0.2112540588E+07      0.3035500532E+07      0.2238052088E+03
         15                 8           0            35   83     1       0.1062528724E+01      35   83    1      -0.1439220286E+07      0.1471728734E+07      0.2112540588E+07      0.2238052088E+03
         16                 8           0            35   83     1       0.7437700938E+00      35   83    1      -0.9835735304E+06      0.1030749527E+07      0.1471728734E+07      0.2238052088E+03
         17                 8           0            35   83     1       0.5206390568E+00      35   83    1      -0.6646257423E+06      0.7328258715E+06      0.1030749527E+07      0.2238052088E+03
         18                 8           0            35   83     1       0.3644473335E+00      35   83    1      -0.4413647126E+06      0.5387991863E+06      0.7328258715E+06      0.2238052088E+03
         19                 8           0            35   83     1       0.2551131291E+00      35   83    1      -0.2850831793E+06      0.4206079861E+06      0.5387991863E+06      0.2238052088E+03
         20                 8           0            35   83     1       0.1785791874E+00      35   83    1      -0.1756866885E+06      0.3558094652E+06      0.4206079861E+06      0.2238052088E+03
          0                 9           2            29  108     1       0.3893300680E+00      38   81    1      -0.1238445331E+06      0.3249990920E+06      0.3558094652E+06      0.3893300680E+00
                                                   Max.-Head-Change                        Max.-Flux-Residual
  Residual-Control   Outer-Iter.   Inner-Iter.     Column Row Layer    Max.-Head-Change    Column Row Layer    Max.-Flux-Residual            L2-New               L2-Old           Solver-Max-Delh
          0                10           2            29  108     1       0.3914307864E+00      34  106    1      -0.1009996244E+05      0.2638170547E+05      0.3249990920E+06      0.3914307864E+00
          0                11           2            29  108     1       0.3914859423E+00      34  106    1      -0.5049994839E+03      0.1319452959E+04      0.2638170547E+05      0.3914859423E+00

    ------------------------------------------------
       NWT REQUIRED           11 OUTER ITERATIONS 
       AND A TOTAL OF         22 INNER ITERATIONS.
    ------------------------------------------------

 OUTPUT CONTROL FOR STRESS PERIOD    1   TIME STEP   72
    SAVE HEAD FOR ALL LAYERS
    SAVE DRAWDOWN FOR ALL LAYERS
    SAVE BUDGET
    PRINT BUDGET
 UBDSV1 SAVING "         STORAGE" ON UNIT   9 AT TIME STEP 72, STRESS PERIOD   1
 UBDSV2 SAVING "   CONSTANT HEAD" ON UNIT   9 AT TIME STEP 72, STRESS PERIOD   1
 UBDSV1 SAVING "FLOW RIGHT FACE " ON UNIT   9 AT TIME STEP 72, STRESS PERIOD   1
 UBDSV1 SAVING "FLOW FRONT FACE " ON UNIT   9 AT TIME STEP 72, STRESS PERIOD   1
 UBDSV4 SAVING "   RIVER LEAKAGE" ON UNIT   9 AT TIME STEP 72, STRESS PERIOD   1
 UBDSV3 SAVING "        RECHARGE" ON UNIT   9 AT TIME STEP 72, STRESS PERIOD   1

 HEAD WILL BE SAVED ON UNIT   37 AT END OF TIME STEP   72, STRESS PERIOD    1

 DRAWDOWN WILL BE SAVED ON UNIT   38 AT END OF TIME STEP   72, STRESS PERIOD    1
1
  VOLUMETRIC BUDGET FOR ENTIRE MODEL AT END OF TIME STEP   72, STRESS PERIOD   1
  ------------------------------------------------------------------------------

     CUMULATIVE VOLUMES      L**3       RATES FOR THIS TIME STEP      L**3/T
     ------------------                 ------------------------

           IN:                                      IN:
           ---                                      ---
             STORAGE =    66855552.0000               STORAGE =      891472.6250
       CONSTANT HEAD =           0.0000         CONSTANT HEAD =           0.0000
       RIVER LEAKAGE =   112341272.0000         RIVER LEAKAGE =     2002534.3750
            RECHARGE =        1010.1921              RECHARGE =       1.1345E-06

            TOTAL IN =   179197824.0000              TOTAL IN =     2894007.0000

          OUT:                                     OUT:
          ----                                     ----
             STORAGE =   178926608.0000               STORAGE =     2888412.0000
       CONSTANT HEAD =           0.0000         CONSTANT HEAD =           0.0000
       RIVER LEAKAGE =      294513.9688         RIVER LEAKAGE =        6034.1230
            RECHARGE =           0.0000              RECHARGE =           0.0000

           TOTAL OUT =   179221120.0000             TOTAL OUT =     2894446.0000

            IN - OUT =      -23296.0000              IN - OUT =        -439.0000

 PERCENT DISCREPANCY =          -0.01     PERCENT DISCREPANCY =          -0.02






         TIME SUMMARY AT END OF TIME STEP   72 IN STRESS PERIOD    1
                    SECONDS     MINUTES      HOURS       DAYS        YEARS
                    -----------------------------------------------------------
   TIME STEP LENGTH  86400.      1440.0      24.000      1.0000     2.73785E-03
 STRESS PERIOD TIME 6.22080E+06 1.03680E+05  1728.0      72.000     0.19713    
         TOTAL TIME 6.22080E+06 1.03680E+05  1728.0      72.000     0.19713    
1
 
 SOLVING FOR HEAD 
                                                   Max.-Head-Change                        Max.-Flux-Residual
  Residual-Control   Outer-Iter.   Inner-Iter.     Column Row Layer    Max.-Head-Change    Column Row Layer    Max.-Flux-Residual            L2-New               L2-Old           Solver-Max-Delh
          0                 1           2            29  108     1       0.3925267555E+00      34  106    1       0.1082518967E+06      0.2215724757E+06      0.7546443819E+02      0.3925267555E+00
          0                 2           2            29  108     1       0.3924398460E+00      34  106    1      -0.1082546598E+05      0.2215757235E+05      0.2215724757E+06      0.3924398460E+00
          0                 3           2            29  108     1       0.3923834354E+00      34  106    1      -0.5412750845E+03      0.1108490976E+04      0.2215757235E+05      0.3923834354E+00
          1                 3           0            29  108     1       0.2746684001E+00      29  108    1      -0.3540816013E+06      0.3540816057E+06      0.1108490976E+04      0.3923834354E+00
          2                 3           0            29  108     1       0.1922678768E+00      29  108    1      -0.2363619228E+06      0.2363622144E+06      0.3540816057E+06      0.3923834354E+00
          3                 3           0            29  108     1       0.1345875115E+00      29  108    1      -0.1539583967E+06      0.1539595357E+06      0.2363622144E+06      0.3923834354E+00
          4                 3           0            29  108     1       0.9421125643E-01      29  108    1      -0.9627605057E+05      0.9627894794E+05      0.1539595357E+06      0.3923834354E+00
          5                 3           0            29  108     1       0.6594787838E-01      29  108    1      -0.5589846836E+05      0.5590501027E+05      0.9627894794E+05      0.3923834354E+00
          6                 3           0            29  108     1       0.4616351408E-01      29  108    1      -0.2763419040E+05      0.2764986976E+05      0.5590501027E+05      0.3923834354E+00
          7                 3           0            29  108     1       0.3231445931E-01      29  108    1      -0.7849210418E+04      0.7910660519E+04      0.2764986976E+05      0.3923834354E+00
                                                   Max.-Head-Change                        Max.-Flux-Residual
  Residual-Control   Outer-Iter.   Inner-Iter.     Column Row Layer    Max.-Head-Change    Column Row Layer    Max.-Flux-Residual            L2-New               L2-Old           Solver-Max-Delh
          0                 4           2            29  108     1       0.3923786003E+00      34  106    1      -0.4989271285E+03      0.1021865353E+04      0.7910660519E+04      0.3923786003E+00
          1                 4           0            29  108     1       0.2746650155E+00      29  108    1      -0.3863925725E+06      0.3863925760E+06      0.1021865353E+04      0.3923786003E+00
          2                 4           0            29  108     1       0.1922655076E+00      29  108    1      -0.2686742306E+06      0.2686744485E+06      0.3863925760E+06      0.3923786003E+00
          3                 4           0            29  108     1       0.1345858530E+00      29  108    1      -0.1862716400E+06      0.1862724399E+06      0.2686744485E+06      0.3923786003E+00
          4                 4           0            29  108     1       0.9421009551E-01      29  108    1      -0.1285899488E+06      0.1285917919E+06      0.1862724399E+06      0.3923786003E+00
          5                 4           0            29  108     1       0.6594706574E-01      29  108    1      -0.8821282496E+05      0.8821634733E+05      0.1285917919E+06      0.3923786003E+00
          6                 4           0            29  108     1       0.4616294523E-01      29  108    1      -0.5994886789E+05      0.5995501030E+05      0.8821634733E+05      0.3923786003E+00
          7                 4           0            29  108     1       0.3231406111E-01      29  108    1      -0.4016411253E+05      0.4017435479E+05      0.5995501030E+05      0.3923786003E+00
          8                 4           0            29  108     1       0.2261984239E-01      29  108    1      -0.2631479101E+05      0.2633162288E+05      0.4017435479E+05      0.3923786003E+00
          9                 4           0            29  108     1       0.1583388940E-01      29  108    1      -0.1662026953E+05      0.1664827906E+05      0.2633162288E+05      0.3923786003E+00
                                                   Max.-Head-Change                        Max.-Flux-Residual
  Residual-Control   Outer-Iter.   Inner-Iter.     Column Row Layer    Max.-Head-Change    Column Row Layer    Max.-Flux-Residual            L2-New               L2-Old           Solver-Max-Delh
         10                 4           0            29  108     1       0.1108372239E-01      29  108    1      -0.9834106285E+04      0.9883023624E+04      0.1664827906E+05      0.3923786003E+00
         11                 4           0            29  108     1       0.7758605544E-02      29  108    1      -0.5083792917E+04      0.5180025678E+04      0.9883023624E+04      0.3923786003E+00
         12                 4           0            29  108     1       0.5431023788E-02      29  108    1      -0.1758574020E+04      0.2024032260E+04      0.5180025678E+04      0.3923786003E+00
          0                 5           2            29  108     1       0.3923777875E+00      34  106    1      -0.4923664876E+03      0.1008445914E+04      0.2024032260E+04      0.3923777875E+00
          1                 5           0            29  108     1       0.2746644466E+00      29  108    1      -0.3918230130E+06      0.3918230164E+06      0.1008445914E+04      0.3923777875E+00
          2                 5           0            29  108     1       0.1922651093E+00      29  108    1      -0.2741048957E+06      0.2741051038E+06      0.3918230164E+06      0.3923777875E+00
          3                 5           0            29  108     1       0.1345855742E+00      29  108    1      -0.1917024624E+06      0.1917032194E+06      0.2741051038E+06      0.3923777875E+00
          4                 5           0            29  108     1       0.9420990037E-01      29  108    1      -0.1340208813E+06      0.1340226035E+06      0.1917032194E+06      0.3923777875E+00
          5                 5           0            29  108     1       0.6594692914E-01      29  108    1      -0.9364383453E+05      0.9364706592E+05      0.1340226035E+06      0.3923777875E+00
          6                 5           0            29  108     1       0.4616284961E-01      29  108    1      -0.6537993140E+05      0.6538541647E+05      0.9364706592E+05      0.3923777875E+00
                                                   Max.-Head-Change                        Max.-Flux-Residual
  Residual-Control   Outer-Iter.   Inner-Iter.     Column Row Layer    Max.-Head-Change    Column Row Layer    Max.-Flux-Residual            L2-New               L2-Old           Solver-Max-Delh
          7                 5           0            29  108     1       0.3231399418E-01      29  108    1      -0.4559521380E+05      0.4560400060E+05      0.6538541647E+05      0.3923777875E+00
          8                 5           0            29  108     1       0.2261979554E-01      29  108    1      -0.3174591871E+05      0.3175950789E+05      0.4560400060E+05      0.3923777875E+00
          9                 5           0            29  108     1       0.1583385661E-01      29  108    1      -0.2205141573E+05      0.2207198288E+05      0.3175950789E+05      0.3923777875E+00
         10                 5           0            29  108     1       0.1108369944E-01      29  108    1      -0.1526526544E+05      0.1529600082E+05      0.2207198288E+05      0.3923777875E+00
         11                 5           0            29  108     1       0.7758589473E-02      29  108    1      -0.1051496114E+05      0.1056060225E+05      0.1529600082E+05      0.3923777875E+00
         12                 5           0            29  108     1       0.5431012539E-02      29  108    1      -0.7189748585E+04      0.7257435957E+04      0.1056060225E+05      0.3923777875E+00
         13                 5           0            29  108     1       0.3801708712E-02      29  108    1      -0.4862100036E+04      0.4962778754E+04      0.7257435957E+04      0.3923777875E+00
         14                 5           0            29  108     1       0.2661196053E-02      29  108    1      -0.3232746176E+04      0.3383449039E+04      0.4962778754E+04      0.3923777875E+00
         15                 5           0            29  108     1       0.1862837206E-02      29  108    1      -0.2092198541E+04      0.2319469649E+04      0.3383449039E+04      0.3923777875E+00
         16                 5           0            29  108     1       0.1303986022E-02      29  108    1      -0.1293815233E+04      0.1637225520E+04      0.2319469649E+04      0.3923777875E+00
                                                   Max.-Head-Change                        Max.-Flux-Residual
  Residual-Control   Outer-Iter.   Inner-Iter.     Column Row Layer    Max.-Head-Change    Column Row Layer    Max.-Flux-Residual            L2-New               L2-Old           Solver-Max-Delh
         17                 5           0            29  108     1       0.9127901996E-03      29  108    1      -0.7349469385E+03      0.1244762806E+04      0.1637225520E+04      0.3923777875E+00
          0                 6           2            63    9     1       0.1049675300E+00      34  106    1      -0.4912783286E+03      0.1062714816E+04      0.1244762806E+04      0.1049675300E+00

    ------------------------------------------------
       NWT REQUIRED            6 OUTER ITERATIONS 
       AND A TOTAL OF         12 INNER ITERATIONS.
    ------------------------------------------------

 OUTPUT CONTROL FOR STRESS PERIOD    1   TIME STEP   73
    SAVE HEAD FOR ALL LAYERS
    SAVE DRAWDOWN FOR ALL LAYERS
    SAVE BUDGET
    PRINT BUDGET
 UBDSV1 SAVING "         STORAGE" ON UNIT   9 AT TIME STEP 73, STRESS PERIOD   1
 UBDSV2 SAVING "   CONSTANT HEAD" ON UNIT   9 AT TIME STEP 73, STRESS PERIOD   1
 UBDSV1 SAVING "FLOW RIGHT FACE " ON UNIT   9 AT TIME STEP 73, STRESS PERIOD   1
 UBDSV1 SAVING "FLOW FRONT FACE " ON UNIT   9 AT TIME STEP 73, STRESS PERIOD   1
 UBDSV4 SAVING "   RIVER LEAKAGE" ON UNIT   9 AT TIME STEP 73, STRESS PERIOD   1
 UBDSV3 SAVING "        RECHARGE" ON UNIT   9 AT TIME STEP 73, STRESS PERIOD   1

 HEAD WILL BE SAVED ON UNIT   37 AT END OF TIME STEP   73, STRESS PERIOD    1

 DRAWDOWN WILL BE SAVED ON UNIT   38 AT END OF TIME STEP   73, STRESS PERIOD    1
1
  VOLUMETRIC BUDGET FOR ENTIRE MODEL AT END OF TIME STEP   73, STRESS PERIOD   1
  ------------------------------------------------------------------------------

     CUMULATIVE VOLUMES      L**3       RATES FOR THIS TIME STEP      L**3/T
     ------------------                 ------------------------

           IN:                                      IN:
           ---                                      ---
             STORAGE =    67756736.0000               STORAGE =      901182.7500
       CONSTANT HEAD =           0.0000         CONSTANT HEAD =           0.0000
       RIVER LEAKAGE =   113617840.0000         RIVER LEAKAGE =     1276569.1250
            RECHARGE =        1010.1921              RECHARGE =       9.0588E-07

            TOTAL IN =   181375584.0000              TOTAL IN =     2177752.0000

          OUT:                                     OUT:
          ----                                     ----
             STORAGE =   181098608.0000               STORAGE =     2171993.0000
       CONSTANT HEAD =           0.0000         CONSTANT HEAD =           0.0000
       RIVER LEAKAGE =      300551.4062         RIVER LEAKAGE =        6037.4526
            RECHARGE =           0.0000              RECHARGE =           0.0000

           TOTAL OUT =   181399152.0000             TOTAL OUT =     2178030.5000

            IN - OUT =      -23568.0000              IN - OUT =        -278.5000

 PERCENT DISCREPANCY =          -0.01     PERCENT DISCREPANCY =          -0.01






         TIME SUMMARY AT END OF TIME STEP   73 IN STRESS PERIOD    1
                    SECONDS     MINUTES      HOURS       DAYS        YEARS
                    -----------------------------------------------------------
   TIME STEP LENGTH  86400.      1440.0      24.000      1.0000     2.73785E-03
 STRESS PERIOD TIME 6.30720E+06 1.05120E+05  1752.0      73.000     0.19986    
         TOTAL TIME 6.30720E+06 1.05120E+05  1752.0      73.000     0.19986    
1
 
 SOLVING FOR HEAD 
                                                   Max.-Head-Change                        Max.-Flux-Residual
  Residual-Control   Outer-Iter.   Inner-Iter.     Column Row Layer    Max.-Head-Change    Column Row Layer    Max.-Flux-Residual            L2-New               L2-Old           Solver-Max-Delh
          0                 1           2            58   12     1       0.2167396036E+00      34  106    1       0.1081654945E+06      0.2214896845E+06      0.5388391272E+02      0.2167396036E+00
          0                 2           2            63    9     1       0.1062511333E+00      34  106    1      -0.1081682526E+05      0.2214926454E+05      0.2214896845E+06      0.1062511333E+00
          0                 3           2            63    9     1       0.1061695711E+00      34  106    1      -0.5408430451E+03      0.1107504071E+04      0.2214926454E+05      0.1061695711E+00

    ------------------------------------------------
       NWT REQUIRED            3 OUTER ITERATIONS 
       AND A TOTAL OF          6 INNER ITERATIONS.
    ------------------------------------------------

 OUTPUT CONTROL FOR STRESS PERIOD    1   TIME STEP   74
    SAVE HEAD FOR ALL LAYERS
    SAVE DRAWDOWN FOR ALL LAYERS
    SAVE BUDGET
    PRINT BUDGET
 UBDSV1 SAVING "         STORAGE" ON UNIT   9 AT TIME STEP 74, STRESS PERIOD   1
 UBDSV2 SAVING "   CONSTANT HEAD" ON UNIT   9 AT TIME STEP 74, STRESS PERIOD   1
 UBDSV1 SAVING "FLOW RIGHT FACE " ON UNIT   9 AT TIME STEP 74, STRESS PERIOD   1
 UBDSV1 SAVING "FLOW FRONT FACE " ON UNIT   9 AT TIME STEP 74, STRESS PERIOD   1
 UBDSV4 SAVING "   RIVER LEAKAGE" ON UNIT   9 AT TIME STEP 74, STRESS PERIOD   1
 UBDSV3 SAVING "        RECHARGE" ON UNIT   9 AT TIME STEP 74, STRESS PERIOD   1

 HEAD WILL BE SAVED ON UNIT   37 AT END OF TIME STEP   74, STRESS PERIOD    1

 DRAWDOWN WILL BE SAVED ON UNIT   38 AT END OF TIME STEP   74, STRESS PERIOD    1
1
  VOLUMETRIC BUDGET FOR ENTIRE MODEL AT END OF TIME STEP   74, STRESS PERIOD   1
  ------------------------------------------------------------------------------

     CUMULATIVE VOLUMES      L**3       RATES FOR THIS TIME STEP      L**3/T
     ------------------                 ------------------------

           IN:                                      IN:
           ---                                      ---
             STORAGE =    68657344.0000               STORAGE =      900607.1250
       CONSTANT HEAD =           0.0000         CONSTANT HEAD =           0.0000
       RIVER LEAKAGE =   114894640.0000         RIVER LEAKAGE =     1276800.6250
            RECHARGE =        1010.1921              RECHARGE =       7.2338E-07

            TOTAL IN =   183552992.0000              TOTAL IN =     2177407.7500

          OUT:                                     OUT:
          ----                                     ----
             STORAGE =   183270272.0000               STORAGE =     2171657.2500
       CONSTANT HEAD =           0.0000         CONSTANT HEAD =           0.0000
       RIVER LEAKAGE =      306592.1250         RIVER LEAKAGE =        6040.7314
            RECHARGE =           0.0000              RECHARGE =           0.0000

           TOTAL OUT =   183576864.0000             TOTAL OUT =     2177698.0000

            IN - OUT =      -23872.0000              IN - OUT =        -290.2500

 PERCENT DISCREPANCY =          -0.01     PERCENT DISCREPANCY =          -0.01






         TIME SUMMARY AT END OF TIME STEP   74 IN STRESS PERIOD    1
                    SECONDS     MINUTES      HOURS       DAYS        YEARS
                    -----------------------------------------------------------
   TIME STEP LENGTH  86400.      1440.0      24.000      1.0000     2.73785E-03
 STRESS PERIOD TIME 6.39360E+06 1.06560E+05  1776.0      74.000     0.20260    
         TOTAL TIME 6.39360E+06 1.06560E+05  1776.0      74.000     0.20260    
1
 
 SOLVING FOR HEAD 
                                                   Max.-Head-Change                        Max.-Flux-Residual
  Residual-Control   Outer-Iter.   Inner-Iter.     Column Row Layer    Max.-Head-Change    Column Row Layer    Max.-Flux-Residual            L2-New               L2-Old           Solver-Max-Delh
          0                 1           2            58   12     1       0.2167343405E+00      34  106    1       0.1080789501E+06      0.2213990135E+06      0.5614472092E+02      0.2167343405E+00
          0                 2           2            63    9     1       0.1074460050E+00      34  106    1      -0.1080817031E+05      0.2214019721E+05      0.2213990135E+06      0.1074460050E+00
          0                 3           2            63    9     1       0.1073624141E+00      34  106    1      -0.5404102937E+03      0.1107052231E+04      0.2214019721E+05      0.1073624141E+00

    ------------------------------------------------
       NWT REQUIRED            3 OUTER ITERATIONS 
       AND A TOTAL OF          6 INNER ITERATIONS.
    ------------------------------------------------

 OUTPUT CONTROL FOR STRESS PERIOD    1   TIME STEP   75
    SAVE HEAD FOR ALL LAYERS
    SAVE DRAWDOWN FOR ALL LAYERS
    SAVE BUDGET
    PRINT BUDGET
 UBDSV1 SAVING "         STORAGE" ON UNIT   9 AT TIME STEP 75, STRESS PERIOD   1
 UBDSV2 SAVING "   CONSTANT HEAD" ON UNIT   9 AT TIME STEP 75, STRESS PERIOD   1
 UBDSV1 SAVING "FLOW RIGHT FACE " ON UNIT   9 AT TIME STEP 75, STRESS PERIOD   1
 UBDSV1 SAVING "FLOW FRONT FACE " ON UNIT   9 AT TIME STEP 75, STRESS PERIOD   1
 UBDSV4 SAVING "   RIVER LEAKAGE" ON UNIT   9 AT TIME STEP 75, STRESS PERIOD   1
 UBDSV3 SAVING "        RECHARGE" ON UNIT   9 AT TIME STEP 75, STRESS PERIOD   1

 HEAD WILL BE SAVED ON UNIT   37 AT END OF TIME STEP   75, STRESS PERIOD    1

 DRAWDOWN WILL BE SAVED ON UNIT   38 AT END OF TIME STEP   75, STRESS PERIOD    1
1
  VOLUMETRIC BUDGET FOR ENTIRE MODEL AT END OF TIME STEP   75, STRESS PERIOD   1
  ------------------------------------------------------------------------------

     CUMULATIVE VOLUMES      L**3       RATES FOR THIS TIME STEP      L**3/T
     ------------------                 ------------------------

           IN:                                      IN:
           ---                                      ---
             STORAGE =    69557368.0000               STORAGE =      900022.9375
       CONSTANT HEAD =           0.0000         CONSTANT HEAD =           0.0000
       RIVER LEAKAGE =   116171432.0000         RIVER LEAKAGE =     1276794.0000
            RECHARGE =        1010.1921              RECHARGE =       5.7769E-07

            TOTAL IN =   185729808.0000              TOTAL IN =     2176817.0000

          OUT:                                     OUT:
          ----                                     ----
             STORAGE =   185441328.0000               STORAGE =     2171062.5000
       CONSTANT HEAD =           0.0000         CONSTANT HEAD =           0.0000
       RIVER LEAKAGE =      312636.1250         RIVER LEAKAGE =        6044.0107
            RECHARGE =           0.0000              RECHARGE =           0.0000

           TOTAL OUT =   185753968.0000             TOTAL OUT =     2177106.5000

            IN - OUT =      -24160.0000              IN - OUT =        -289.5000

 PERCENT DISCREPANCY =          -0.01     PERCENT DISCREPANCY =          -0.01






         TIME SUMMARY AT END OF TIME STEP   75 IN STRESS PERIOD    1
                    SECONDS     MINUTES      HOURS       DAYS        YEARS
                    -----------------------------------------------------------
   TIME STEP LENGTH  86400.      1440.0      24.000      1.0000     2.73785E-03
 STRESS PERIOD TIME 6.48000E+06 1.08000E+05  1800.0      75.000     0.20534    
         TOTAL TIME 6.48000E+06 1.08000E+05  1800.0      75.000     0.20534    
1
 
 SOLVING FOR HEAD 
                                                   Max.-Head-Change                        Max.-Flux-Residual
  Residual-Control   Outer-Iter.   Inner-Iter.     Column Row Layer    Max.-Head-Change    Column Row Layer    Max.-Flux-Residual            L2-New               L2-Old           Solver-Max-Delh
          0                 1           2            58   12     1       0.2167294800E+00      34  106    1       0.1079922411E+06      0.2213083297E+06      0.5615196151E+02      0.2167294800E+00
          0                 2           2            63    9     1       0.1086316816E+00      34  106    1      -0.1079949892E+05      0.2213112861E+05      0.2213083297E+06      0.1086316816E+00
          0                 3           2            63    9     1       0.1085460447E+00      34  106    1      -0.5399767212E+03      0.1106600497E+04      0.2213112861E+05      0.1085460447E+00

    ------------------------------------------------
       NWT REQUIRED            3 OUTER ITERATIONS 
       AND A TOTAL OF          6 INNER ITERATIONS.
    ------------------------------------------------

 OUTPUT CONTROL FOR STRESS PERIOD    1   TIME STEP   76
    SAVE HEAD FOR ALL LAYERS
    SAVE DRAWDOWN FOR ALL LAYERS
    SAVE BUDGET
    PRINT BUDGET
 UBDSV1 SAVING "         STORAGE" ON UNIT   9 AT TIME STEP 76, STRESS PERIOD   1
 UBDSV2 SAVING "   CONSTANT HEAD" ON UNIT   9 AT TIME STEP 76, STRESS PERIOD   1
 UBDSV1 SAVING "FLOW RIGHT FACE " ON UNIT   9 AT TIME STEP 76, STRESS PERIOD   1
 UBDSV1 SAVING "FLOW FRONT FACE " ON UNIT   9 AT TIME STEP 76, STRESS PERIOD   1
 UBDSV4 SAVING "   RIVER LEAKAGE" ON UNIT   9 AT TIME STEP 76, STRESS PERIOD   1
 UBDSV3 SAVING "        RECHARGE" ON UNIT   9 AT TIME STEP 76, STRESS PERIOD   1

 HEAD WILL BE SAVED ON UNIT   37 AT END OF TIME STEP   76, STRESS PERIOD    1

 DRAWDOWN WILL BE SAVED ON UNIT   38 AT END OF TIME STEP   76, STRESS PERIOD    1
1
  VOLUMETRIC BUDGET FOR ENTIRE MODEL AT END OF TIME STEP   76, STRESS PERIOD   1
  ------------------------------------------------------------------------------

     CUMULATIVE VOLUMES      L**3       RATES FOR THIS TIME STEP      L**3/T
     ------------------                 ------------------------

           IN:                                      IN:
           ---                                      ---
             STORAGE =    70456808.0000               STORAGE =      899439.3750
       CONSTANT HEAD =           0.0000         CONSTANT HEAD =           0.0000
       RIVER LEAKAGE =   117448216.0000         RIVER LEAKAGE =     1276787.3750
            RECHARGE =        1010.1921              RECHARGE =       4.6137E-07

            TOTAL IN =   187906032.0000              TOTAL IN =     2176226.7500

          OUT:                                     OUT:
          ----                                     ----
             STORAGE =   187611792.0000               STORAGE =     2170468.5000
       CONSTANT HEAD =           0.0000         CONSTANT HEAD =           0.0000
       RIVER LEAKAGE =      318683.4688         RIVER LEAKAGE =        6047.3423
            RECHARGE =           0.0000              RECHARGE =           0.0000

           TOTAL OUT =   187930480.0000             TOTAL OUT =     2176515.7500

            IN - OUT =      -24448.0000              IN - OUT =        -289.0000

 PERCENT DISCREPANCY =          -0.01     PERCENT DISCREPANCY =          -0.01






         TIME SUMMARY AT END OF TIME STEP   76 IN STRESS PERIOD    1
                    SECONDS     MINUTES      HOURS       DAYS        YEARS
                    -----------------------------------------------------------
   TIME STEP LENGTH  86400.      1440.0      24.000      1.0000     2.73785E-03
 STRESS PERIOD TIME 6.56640E+06 1.09440E+05  1824.0      76.000     0.20808    
         TOTAL TIME 6.56640E+06 1.09440E+05  1824.0      76.000     0.20808    
1
 
 SOLVING FOR HEAD 
                                                   Max.-Head-Change                        Max.-Flux-Residual
  Residual-Control   Outer-Iter.   Inner-Iter.     Column Row Layer    Max.-Head-Change    Column Row Layer    Max.-Flux-Residual            L2-New               L2-Old           Solver-Max-Delh
          0                 1           2            58   12     1       0.2167242229E+00      34  106    1       0.1079053940E+06      0.2212176170E+06      0.5616249145E+02      0.2167242229E+00
          0                 2           2            63    9     1       0.1098080763E+00      34  106    1      -0.1079081370E+05      0.2212205713E+05      0.2212176170E+06      0.1098080763E+00
          0                 3           2            63    9     1       0.1097203763E+00      34  106    1      -0.5395424565E+03      0.1106148780E+04      0.2212205713E+05      0.1097203763E+00

    ------------------------------------------------
       NWT REQUIRED            3 OUTER ITERATIONS 
       AND A TOTAL OF          6 INNER ITERATIONS.
    ------------------------------------------------

 OUTPUT CONTROL FOR STRESS PERIOD    1   TIME STEP   77
    SAVE HEAD FOR ALL LAYERS
    SAVE DRAWDOWN FOR ALL LAYERS
    SAVE BUDGET
    PRINT BUDGET
 UBDSV1 SAVING "         STORAGE" ON UNIT   9 AT TIME STEP 77, STRESS PERIOD   1
 UBDSV2 SAVING "   CONSTANT HEAD" ON UNIT   9 AT TIME STEP 77, STRESS PERIOD   1
 UBDSV1 SAVING "FLOW RIGHT FACE " ON UNIT   9 AT TIME STEP 77, STRESS PERIOD   1
 UBDSV1 SAVING "FLOW FRONT FACE " ON UNIT   9 AT TIME STEP 77, STRESS PERIOD   1
 UBDSV4 SAVING "   RIVER LEAKAGE" ON UNIT   9 AT TIME STEP 77, STRESS PERIOD   1
 UBDSV3 SAVING "        RECHARGE" ON UNIT   9 AT TIME STEP 77, STRESS PERIOD   1

 HEAD WILL BE SAVED ON UNIT   37 AT END OF TIME STEP   77, STRESS PERIOD    1

 DRAWDOWN WILL BE SAVED ON UNIT   38 AT END OF TIME STEP   77, STRESS PERIOD    1
1
  VOLUMETRIC BUDGET FOR ENTIRE MODEL AT END OF TIME STEP   77, STRESS PERIOD   1
  ------------------------------------------------------------------------------

     CUMULATIVE VOLUMES      L**3       RATES FOR THIS TIME STEP      L**3/T
     ------------------                 ------------------------

           IN:                                      IN:
           ---                                      ---
             STORAGE =    71355664.0000               STORAGE =      898856.3125
       CONSTANT HEAD =           0.0000         CONSTANT HEAD =           0.0000
       RIVER LEAKAGE =   118725000.0000         RIVER LEAKAGE =     1276780.8750
            RECHARGE =        1010.1921              RECHARGE =       3.6851E-07

            TOTAL IN =   190081664.0000              TOTAL IN =     2175637.2500

          OUT:                                     OUT:
          ----                                     ----
             STORAGE =   189781664.0000               STORAGE =     2169874.7500
       CONSTANT HEAD =           0.0000         CONSTANT HEAD =           0.0000
       RIVER LEAKAGE =      324734.0938         RIVER LEAKAGE =        6050.6226
            RECHARGE =           0.0000              RECHARGE =           0.0000

           TOTAL OUT =   190106400.0000             TOTAL OUT =     2175925.2500

            IN - OUT =      -24736.0000              IN - OUT =        -288.0000

 PERCENT DISCREPANCY =          -0.01     PERCENT DISCREPANCY =          -0.01






         TIME SUMMARY AT END OF TIME STEP   77 IN STRESS PERIOD    1
                    SECONDS     MINUTES      HOURS       DAYS        YEARS
                    -----------------------------------------------------------
   TIME STEP LENGTH  86400.      1440.0      24.000      1.0000     2.73785E-03
 STRESS PERIOD TIME 6.65280E+06 1.10880E+05  1848.0      77.000     0.21081    
         TOTAL TIME 6.65280E+06 1.10880E+05  1848.0      77.000     0.21081    
1
 
 SOLVING FOR HEAD 
                                                   Max.-Head-Change                        Max.-Flux-Residual
  Residual-Control   Outer-Iter.   Inner-Iter.     Column Row Layer    Max.-Head-Change    Column Row Layer    Max.-Flux-Residual            L2-New               L2-Old           Solver-Max-Delh
          0                 1           2            58   12     1       0.2167189669E+00      34  106    1       0.1078184097E+06      0.2211269159E+06      0.5617616957E+02      0.2167189669E+00
          0                 2           2            63    9     1       0.1109751008E+00      34  106    1      -0.1078211476E+05      0.2211298689E+05      0.2211269159E+06      0.1109751008E+00
          0                 3           2            63    9     1       0.1108853212E+00      34  106    1      -0.5391075061E+03      0.1105697279E+04      0.2211298689E+05      0.1108853212E+00

    ------------------------------------------------
       NWT REQUIRED            3 OUTER ITERATIONS 
       AND A TOTAL OF          6 INNER ITERATIONS.
    ------------------------------------------------

 OUTPUT CONTROL FOR STRESS PERIOD    1   TIME STEP   78
    SAVE HEAD FOR ALL LAYERS
    SAVE DRAWDOWN FOR ALL LAYERS
    SAVE BUDGET
    PRINT BUDGET
 UBDSV1 SAVING "         STORAGE" ON UNIT   9 AT TIME STEP 78, STRESS PERIOD   1
 UBDSV2 SAVING "   CONSTANT HEAD" ON UNIT   9 AT TIME STEP 78, STRESS PERIOD   1
 UBDSV1 SAVING "FLOW RIGHT FACE " ON UNIT   9 AT TIME STEP 78, STRESS PERIOD   1
 UBDSV1 SAVING "FLOW FRONT FACE " ON UNIT   9 AT TIME STEP 78, STRESS PERIOD   1
 UBDSV4 SAVING "   RIVER LEAKAGE" ON UNIT   9 AT TIME STEP 78, STRESS PERIOD   1
 UBDSV3 SAVING "        RECHARGE" ON UNIT   9 AT TIME STEP 78, STRESS PERIOD   1

 HEAD WILL BE SAVED ON UNIT   37 AT END OF TIME STEP   78, STRESS PERIOD    1

 DRAWDOWN WILL BE SAVED ON UNIT   38 AT END OF TIME STEP   78, STRESS PERIOD    1
1
  VOLUMETRIC BUDGET FOR ENTIRE MODEL AT END OF TIME STEP   78, STRESS PERIOD   1
  ------------------------------------------------------------------------------

     CUMULATIVE VOLUMES      L**3       RATES FOR THIS TIME STEP      L**3/T
     ------------------                 ------------------------

           IN:                                      IN:
           ---                                      ---
             STORAGE =    72253936.0000               STORAGE =      898273.8750
       CONSTANT HEAD =           0.0000         CONSTANT HEAD =           0.0000
       RIVER LEAKAGE =   120001776.0000         RIVER LEAKAGE =     1276774.2500
            RECHARGE =        1010.1921              RECHARGE =       2.9435E-07

            TOTAL IN =   192256720.0000              TOTAL IN =     2175048.0000

          OUT:                                     OUT:
          ----                                     ----
             STORAGE =   191950944.0000               STORAGE =     2169281.7500
       CONSTANT HEAD =           0.0000         CONSTANT HEAD =           0.0000
       RIVER LEAKAGE =      330788.0000         RIVER LEAKAGE =        6053.9038
            RECHARGE =           0.0000              RECHARGE =           0.0000

           TOTAL OUT =   192281728.0000             TOTAL OUT =     2175335.7500

            IN - OUT =      -25008.0000              IN - OUT =        -287.7500

 PERCENT DISCREPANCY =          -0.01     PERCENT DISCREPANCY =          -0.01






         TIME SUMMARY AT END OF TIME STEP   78 IN STRESS PERIOD    1
                    SECONDS     MINUTES      HOURS       DAYS        YEARS
                    -----------------------------------------------------------
   TIME STEP LENGTH  86400.      1440.0      24.000      1.0000     2.73785E-03
 STRESS PERIOD TIME 6.73920E+06 1.12320E+05  1872.0      78.000     0.21355    
         TOTAL TIME 6.73920E+06 1.12320E+05  1872.0      78.000     0.21355    
1
 
 SOLVING FOR HEAD 
                                                   Max.-Head-Change                        Max.-Flux-Residual
  Residual-Control   Outer-Iter.   Inner-Iter.     Column Row Layer    Max.-Head-Change    Column Row Layer    Max.-Flux-Residual            L2-New               L2-Old           Solver-Max-Delh
          0                 1           2            58   12     1       0.2167136467E+00      34  106    1       0.1077312629E+06      0.2210362121E+06      0.5619284928E+02      0.2167136467E+00
          0                 2           2            63    9     1       0.1121326736E+00      34  106    1      -0.1077339958E+05      0.2210391626E+05      0.2210362121E+06      0.1121326736E+00
          0                 3           2            63    9     1       0.1120407981E+00      34  106    1      -0.5386717432E+03      0.1105245905E+04      0.2210391626E+05      0.1120407981E+00

    ------------------------------------------------
       NWT REQUIRED            3 OUTER ITERATIONS 
       AND A TOTAL OF          6 INNER ITERATIONS.
    ------------------------------------------------

 OUTPUT CONTROL FOR STRESS PERIOD    1   TIME STEP   79
    SAVE HEAD FOR ALL LAYERS
    SAVE DRAWDOWN FOR ALL LAYERS
    SAVE BUDGET
    PRINT BUDGET
 UBDSV1 SAVING "         STORAGE" ON UNIT   9 AT TIME STEP 79, STRESS PERIOD   1
 UBDSV2 SAVING "   CONSTANT HEAD" ON UNIT   9 AT TIME STEP 79, STRESS PERIOD   1
 UBDSV1 SAVING "FLOW RIGHT FACE " ON UNIT   9 AT TIME STEP 79, STRESS PERIOD   1
 UBDSV1 SAVING "FLOW FRONT FACE " ON UNIT   9 AT TIME STEP 79, STRESS PERIOD   1
 UBDSV4 SAVING "   RIVER LEAKAGE" ON UNIT   9 AT TIME STEP 79, STRESS PERIOD   1
 UBDSV3 SAVING "        RECHARGE" ON UNIT   9 AT TIME STEP 79, STRESS PERIOD   1

 HEAD WILL BE SAVED ON UNIT   37 AT END OF TIME STEP   79, STRESS PERIOD    1

 DRAWDOWN WILL BE SAVED ON UNIT   38 AT END OF TIME STEP   79, STRESS PERIOD    1
1
  VOLUMETRIC BUDGET FOR ENTIRE MODEL AT END OF TIME STEP   79, STRESS PERIOD   1
  ------------------------------------------------------------------------------

     CUMULATIVE VOLUMES      L**3       RATES FOR THIS TIME STEP      L**3/T
     ------------------                 ------------------------

           IN:                                      IN:
           ---                                      ---
             STORAGE =    73151632.0000               STORAGE =      897692.0000
       CONSTANT HEAD =           0.0000         CONSTANT HEAD =           0.0000
       RIVER LEAKAGE =   121278544.0000         RIVER LEAKAGE =     1276767.6250
            RECHARGE =        1010.1921              RECHARGE =       2.3514E-07

            TOTAL IN =   194431184.0000              TOTAL IN =     2174459.5000

          OUT:                                     OUT:
          ----                                     ----
             STORAGE =   194119632.0000               STORAGE =     2168689.5000
       CONSTANT HEAD =           0.0000         CONSTANT HEAD =           0.0000
       RIVER LEAKAGE =      336845.2188         RIVER LEAKAGE =        6057.2129
            RECHARGE =           0.0000              RECHARGE =           0.0000

           TOTAL OUT =   194456480.0000             TOTAL OUT =     2174746.7500

            IN - OUT =      -25296.0000              IN - OUT =        -287.2500

 PERCENT DISCREPANCY =          -0.01     PERCENT DISCREPANCY =          -0.01






         TIME SUMMARY AT END OF TIME STEP   79 IN STRESS PERIOD    1
                    SECONDS     MINUTES      HOURS       DAYS        YEARS
                    -----------------------------------------------------------
   TIME STEP LENGTH  86400.      1440.0      24.000      1.0000     2.73785E-03
 STRESS PERIOD TIME 6.82560E+06 1.13760E+05  1896.0      79.000     0.21629    
         TOTAL TIME 6.82560E+06 1.13760E+05  1896.0      79.000     0.21629    
1
 
 SOLVING FOR HEAD 
                                                   Max.-Head-Change                        Max.-Flux-Residual
  Residual-Control   Outer-Iter.   Inner-Iter.     Column Row Layer    Max.-Head-Change    Column Row Layer    Max.-Flux-Residual            L2-New               L2-Old           Solver-Max-Delh
          0                 1           2            58   12     1       0.2167083193E+00      34  106    1       0.1076439807E+06      0.2052509054E+06      0.5621235176E+02      0.2167083193E+00
          0                 2           2            63    9     1       0.1132807091E+00      34  106    1      -0.1076466222E+05      0.2062929450E+05      0.2052509054E+06      0.1132807091E+00
          0                 3           2            63    9     1       0.1131867219E+00      34  106    1      -0.5382348077E+03      0.1031519893E+04      0.2062929450E+05      0.1131867219E+00

    ------------------------------------------------
       NWT REQUIRED            3 OUTER ITERATIONS 
       AND A TOTAL OF          6 INNER ITERATIONS.
    ------------------------------------------------

 OUTPUT CONTROL FOR STRESS PERIOD    1   TIME STEP   80
    SAVE HEAD FOR ALL LAYERS
    SAVE DRAWDOWN FOR ALL LAYERS
    SAVE BUDGET
    PRINT BUDGET
 UBDSV1 SAVING "         STORAGE" ON UNIT   9 AT TIME STEP 80, STRESS PERIOD   1
 UBDSV2 SAVING "   CONSTANT HEAD" ON UNIT   9 AT TIME STEP 80, STRESS PERIOD   1
 UBDSV1 SAVING "FLOW RIGHT FACE " ON UNIT   9 AT TIME STEP 80, STRESS PERIOD   1
 UBDSV1 SAVING "FLOW FRONT FACE " ON UNIT   9 AT TIME STEP 80, STRESS PERIOD   1
 UBDSV4 SAVING "   RIVER LEAKAGE" ON UNIT   9 AT TIME STEP 80, STRESS PERIOD   1
 UBDSV3 SAVING "        RECHARGE" ON UNIT   9 AT TIME STEP 80, STRESS PERIOD   1

 HEAD WILL BE SAVED ON UNIT   37 AT END OF TIME STEP   80, STRESS PERIOD    1

 DRAWDOWN WILL BE SAVED ON UNIT   38 AT END OF TIME STEP   80, STRESS PERIOD    1
1
  VOLUMETRIC BUDGET FOR ENTIRE MODEL AT END OF TIME STEP   80, STRESS PERIOD   1
  ------------------------------------------------------------------------------

     CUMULATIVE VOLUMES      L**3       RATES FOR THIS TIME STEP      L**3/T
     ------------------                 ------------------------

           IN:                                      IN:
           ---                                      ---
             STORAGE =    74041336.0000               STORAGE =      889702.1875
       CONSTANT HEAD =           0.0000         CONSTANT HEAD =           0.0000
       RIVER LEAKAGE =   122475552.0000         RIVER LEAKAGE =     1197010.0000
            RECHARGE =        1010.1921              RECHARGE =       1.8785E-07

            TOTAL IN =   196517888.0000              TOTAL IN =     2086712.2500

          OUT:                                     OUT:
          ----                                     ----
             STORAGE =   196200560.0000               STORAGE =     2080922.8750
       CONSTANT HEAD =           0.0000         CONSTANT HEAD =           0.0000
       RIVER LEAKAGE =      342907.3125         RIVER LEAKAGE =        6062.0811
            RECHARGE =           0.0000              RECHARGE =           0.0000

           TOTAL OUT =   196543472.0000             TOTAL OUT =     2086985.0000

            IN - OUT =      -25584.0000              IN - OUT =        -272.7500

 PERCENT DISCREPANCY =          -0.01     PERCENT DISCREPANCY =          -0.01






         TIME SUMMARY AT END OF TIME STEP   80 IN STRESS PERIOD    1
                    SECONDS     MINUTES      HOURS       DAYS        YEARS
                    -----------------------------------------------------------
   TIME STEP LENGTH  86400.      1440.0      24.000      1.0000     2.73785E-03
 STRESS PERIOD TIME 6.91200E+06 1.15200E+05  1920.0      80.000     0.21903    
         TOTAL TIME 6.91200E+06 1.15200E+05  1920.0      80.000     0.21903    
1
 
 SOLVING FOR HEAD 
                                                   Max.-Head-Change                        Max.-Flux-Residual
  Residual-Control   Outer-Iter.   Inner-Iter.     Column Row Layer    Max.-Head-Change    Column Row Layer    Max.-Flux-Residual            L2-New               L2-Old           Solver-Max-Delh
          0                 1           2            32   74     1       0.1262247698E+02      26  115    1       0.1545213501E+06      0.4995810201E+06      0.5266726471E+02      0.1262247698E+02
          0                 2           2            32   74     1       0.1261850685E+02      26  115    1      -0.1545245795E+05      0.4997181203E+05      0.4995810201E+06      0.1261850685E+02
          1                 2           0            32   74     1       0.8832954644E+01      32   74    1      -0.1082798553E+08      0.1082799128E+08      0.4997181203E+05      0.1261850685E+02
          2                 2           0            32   74     1       0.6183068146E+01      32   74    1      -0.7034378519E+07      0.7034401501E+07      0.1082799128E+08      0.1261850685E+02
          3                 2           0            32   74     1       0.4328147628E+01      32   74    1      -0.4379279389E+07      0.4379362350E+07      0.7034401501E+07      0.1261850685E+02
          4                 2           0            32   74     1       0.3029703288E+01      32   74    1      -0.2520918638E+07      0.2521144166E+07      0.4379362350E+07      0.1261850685E+02
          5                 2           0            32   74     1       0.2120792266E+01      32   74    1      -0.1220168353E+07      0.1220777492E+07      0.2521144166E+07      0.1261850685E+02
          6                 2           0            32   74     1       0.1484554561E+01      32   74    1      -0.3096932561E+06      0.3125252793E+06      0.1220777492E+07      0.1261850685E+02
          0                 3           2            32   74     1       0.1261803997E+02      26  115    1      -0.1372539020E+05      0.4438977633E+05      0.3125252793E+06      0.1261803997E+02
          1                 3           0            32   74     1       0.8832627826E+01      32   74    1      -0.1231542624E+08      0.1231543282E+08      0.4438977633E+05      0.1261803997E+02
                                                   Max.-Head-Change                        Max.-Flux-Residual
  Residual-Control   Outer-Iter.   Inner-Iter.     Column Row Layer    Max.-Head-Change    Column Row Layer    Max.-Flux-Residual            L2-New               L2-Old           Solver-Max-Delh
          2                 3           0            32   74     1       0.6182839373E+01      32   74    1      -0.8521679085E+07      0.8521695966E+07      0.1231543282E+08      0.1261803997E+02
          3                 3           0            32   74     1       0.4327987487E+01      32   74    1      -0.5866481822E+07      0.5866532112E+07      0.8521695966E+07      0.1261803997E+02
          4                 3           0            32   74     1       0.3029591190E+01      32   74    1      -0.4008052362E+07      0.4008165318E+07      0.5866532112E+07      0.1261803997E+02
          5                 3           0            32   74     1       0.2120713797E+01      32   74    1      -0.2707253972E+07      0.2707471288E+07      0.4008165318E+07      0.1261803997E+02
          6                 3           0            32   74     1       0.1484499632E+01      32   74    1      -0.1796745198E+07      0.1797132282E+07      0.2707471288E+07      0.1261803997E+02
          7                 3           0            32   74     1       0.1039149725E+01      32   74    1      -0.1159413607E+07      0.1160083246E+07      0.1797132282E+07      0.1261803997E+02
          8                 3           0            32   74     1       0.7274047951E+00      32   74    1      -0.7132935264E+06      0.7144649783E+06      0.1160083246E+07      0.1261803997E+02
          9                 3           0            32   74     1       0.5091833479E+00      32   74    1      -0.4010153674E+06      0.4032025158E+06      0.7144649783E+06      0.1261803997E+02
         10                 3           0            32   74     1       0.3564283374E+00      32   74    1      -0.1824235470E+06      0.1873477312E+06      0.4032025158E+06      0.1261803997E+02
         11                 3           0            32   74     1       0.2494998320E+00      32   74    1      -0.2941069000E+05      0.5224760114E+05      0.1873477312E+06      0.1261803997E+02
                                                   Max.-Head-Change                        Max.-Flux-Residual
  Residual-Control   Outer-Iter.   Inner-Iter.     Column Row Layer    Max.-Head-Change    Column Row Layer    Max.-Flux-Residual            L2-New               L2-Old           Solver-Max-Delh
          0                 4           2            32   74     1       0.1261796150E+02      26  115    1      -0.1346756150E+05      0.4355648776E+05      0.5224760114E+05      0.1261796150E+02
          1                 4           0            32   74     1       0.8832572903E+01      32   74    1      -0.1256542192E+08      0.1256542865E+08      0.4355648776E+05      0.1261796150E+02
          2                 4           0            32   74     1       0.6182800927E+01      32   74    1      -0.8771651219E+07      0.8771667406E+07      0.1256542865E+08      0.1261796150E+02
          3                 4           0            32   74     1       0.4327960575E+01      32   74    1      -0.6116437465E+07      0.6116484219E+07      0.8771667406E+07      0.1261796150E+02
          4                 4           0            32   74     1       0.3029572351E+01      32   74    1      -0.4257996457E+07      0.4258099079E+07      0.6116484219E+07      0.1261796150E+02
          5                 4           0            32   74     1       0.2120700609E+01      32   74    1      -0.2957189983E+07      0.2957381729E+07      0.4258099079E+07      0.1261796150E+02
          6                 4           0            32   74     1       0.1484490401E+01      32   74    1      -0.2046675549E+07      0.2047002876E+07      0.2957381729E+07      0.1261796150E+02
          7                 4           0            32   74     1       0.1039143263E+01      32   74    1      -0.1409339997E+07      0.1409870526E+07      0.2047002876E+07      0.1261796150E+02
          8                 4           0            32   74     1       0.7274002719E+00      32   74    1      -0.9632171424E+06      0.9640526935E+06      0.1409870526E+07      0.1261796150E+02
          9                 4           0            32   74     1       0.5091801816E+00      32   74    1      -0.6509370417E+06      0.6522364577E+06      0.9640526935E+06      0.1261796150E+02
                                                   Max.-Head-Change                        Max.-Flux-Residual
  Residual-Control   Outer-Iter.   Inner-Iter.     Column Row Layer    Max.-Head-Change    Column Row Layer    Max.-Flux-Residual            L2-New               L2-Old           Solver-Max-Delh
         10                 4           0            32   74     1       0.3564261211E+00      32   74    1      -0.4323438621E+06      0.4343662713E+06      0.6522364577E+06      0.1261796150E+02
         11                 4           0            32   74     1       0.2494982805E+00      32   74    1      -0.2793300537E+06      0.2825250781E+06      0.4343662713E+06      0.1261796150E+02
         12                 4           0            32   74     1       0.1746487934E+00      32   74    1      -0.1722210829E+06      0.1774406268E+06      0.2825250781E+06      0.1261796150E+02
         13                 4           0            32   74     1       0.1222541533E+00      32   74    1      -0.9724514424E+05      0.1063146535E+06      0.1774406268E+06      0.1261796150E+02
         14                 4           0            32   74     1       0.8557790584E-01      32   74    1      -0.4476215452E+05      0.6216667027E+05      0.1063146535E+06      0.1261796150E+02
          0                 5           2            63    9     1       0.1144052658E+00      26  115    1      -0.1338078659E+05      0.4399851541E+05      0.6216667027E+05      0.1144052658E+00
          0                 6           2            63    9     1       0.1143091495E+00      26  115    1      -0.6686393717E+03      0.2198681389E+04      0.4399851541E+05      0.1143091495E+00

    ------------------------------------------------
       NWT REQUIRED            6 OUTER ITERATIONS 
       AND A TOTAL OF         12 INNER ITERATIONS.
    ------------------------------------------------

 OUTPUT CONTROL FOR STRESS PERIOD    1   TIME STEP   81
    SAVE HEAD FOR ALL LAYERS
    SAVE DRAWDOWN FOR ALL LAYERS
    SAVE BUDGET
    PRINT BUDGET
 UBDSV1 SAVING "         STORAGE" ON UNIT   9 AT TIME STEP 81, STRESS PERIOD   1
 UBDSV2 SAVING "   CONSTANT HEAD" ON UNIT   9 AT TIME STEP 81, STRESS PERIOD   1
 UBDSV1 SAVING "FLOW RIGHT FACE " ON UNIT   9 AT TIME STEP 81, STRESS PERIOD   1
 UBDSV1 SAVING "FLOW FRONT FACE " ON UNIT   9 AT TIME STEP 81, STRESS PERIOD   1
 UBDSV4 SAVING "   RIVER LEAKAGE" ON UNIT   9 AT TIME STEP 81, STRESS PERIOD   1
 UBDSV3 SAVING "        RECHARGE" ON UNIT   9 AT TIME STEP 81, STRESS PERIOD   1

 HEAD WILL BE SAVED ON UNIT   37 AT END OF TIME STEP   81, STRESS PERIOD    1

 DRAWDOWN WILL BE SAVED ON UNIT   38 AT END OF TIME STEP   81, STRESS PERIOD    1
1
  VOLUMETRIC BUDGET FOR ENTIRE MODEL AT END OF TIME STEP   81, STRESS PERIOD   1
  ------------------------------------------------------------------------------

     CUMULATIVE VOLUMES      L**3       RATES FOR THIS TIME STEP      L**3/T
     ------------------                 ------------------------

           IN:                                      IN:
           ---                                      ---
             STORAGE =    74927544.0000               STORAGE =      886208.6250
       CONSTANT HEAD =           0.0000         CONSTANT HEAD =           0.0000
       RIVER LEAKAGE =   126793296.0000         RIVER LEAKAGE =     4317744.0000
            RECHARGE =        1010.1921              RECHARGE =       1.5008E-07

            TOTAL IN =   201721856.0000              TOTAL IN =     5203952.5000

          OUT:                                     OUT:
          ----                                     ----
             STORAGE =   201399360.0000               STORAGE =     5198792.5000
       CONSTANT HEAD =           0.0000         CONSTANT HEAD =           0.0000
       RIVER LEAKAGE =      348987.3750         RIVER LEAKAGE =        6080.0737
            RECHARGE =           0.0000              RECHARGE =           0.0000

           TOTAL OUT =   201748352.0000             TOTAL OUT =     5204872.5000

            IN - OUT =      -26496.0000              IN - OUT =        -920.0000

 PERCENT DISCREPANCY =          -0.01     PERCENT DISCREPANCY =          -0.02






         TIME SUMMARY AT END OF TIME STEP   81 IN STRESS PERIOD    1
                    SECONDS     MINUTES      HOURS       DAYS        YEARS
                    -----------------------------------------------------------
   TIME STEP LENGTH  86400.      1440.0      24.000      1.0000     2.73785E-03
 STRESS PERIOD TIME 6.99840E+06 1.16640E+05  1944.0      81.000     0.22177    
         TOTAL TIME 6.99840E+06 1.16640E+05  1944.0      81.000     0.22177    
1
 
 SOLVING FOR HEAD 
                                                   Max.-Head-Change                        Max.-Flux-Residual
  Residual-Control   Outer-Iter.   Inner-Iter.     Column Row Layer    Max.-Head-Change    Column Row Layer    Max.-Flux-Residual            L2-New               L2-Old           Solver-Max-Delh
          0                 1           2            58   12     1       0.2166981099E+00      34  106    1       0.1074759172E+06      0.2075629106E+06      0.1104119311E+03      0.2166981099E+00
          0                 2           2            34  106     1       0.9094748231E+02      34  106    1       0.2213774374E+05      0.2838009824E+05      0.2075629106E+06      0.9094748231E+02
          1                 2           0            34  106     1       0.6366323653E+02      34  106    1      -0.3205069944E+07      0.3205070378E+07      0.2838009824E+05      0.9094748231E+02
          2                 2           0            34  106     1       0.4456426481E+02      34  106    1      -0.2235697460E+07      0.2235705404E+07      0.3205070378E+07      0.9094748231E+02
          3                 2           0            34  106     1       0.3119498484E+02      34  106    1      -0.1557304143E+07      0.1557333046E+07      0.2235705404E+07      0.9094748231E+02
          4                 2           0            34  106     1       0.2183648901E+02      34  106    1      -0.1082760619E+07      0.1082826770E+07      0.1557333046E+07      0.9094748231E+02
          5                 2           0            34  106     1       0.1528554205E+02      34  106    1      -0.7505802006E+06      0.7507053230E+06      0.1082826770E+07      0.9094748231E+02
          6                 2           0            34  106     1       0.1069987925E+02      34  106    1      -0.5180539327E+06      0.5182687761E+06      0.7507053230E+06      0.9094748231E+02
          7                 2           0            34  106     1       0.7489915349E+01      34  106    1      -0.3552855582E+06      0.3556354817E+06      0.5182687761E+06      0.9094748231E+02
          8                 2           0            34  106     1       0.5242940655E+01      34  106    1      -0.2413477030E+06      0.2419021048E+06      0.3556354817E+06      0.9094748231E+02
                                                   Max.-Head-Change                        Max.-Flux-Residual
  Residual-Control   Outer-Iter.   Inner-Iter.     Column Row Layer    Max.-Head-Change    Column Row Layer    Max.-Flux-Residual            L2-New               L2-Old           Solver-Max-Delh
          9                 2           0            34  106     1       0.3670058396E+01      34  106    1      -0.1615912083E+06      0.1624606355E+06      0.2419021048E+06      0.9094748231E+02
         10                 2           0            34  106     1       0.2569040834E+01      34  106    1      -0.1057616641E+06      0.1071314776E+06      0.1624606355E+06      0.9094748231E+02
         11                 2           0            34  106     1       0.1798328553E+01      34  106    1      -0.6668098440E+05      0.6888394636E+05      0.1071314776E+06      0.9094748231E+02
         12                 2           0            34  106     1       0.1258829966E+01      34  106    1      -0.3932450939E+05      0.4301192221E+05      0.6888394636E+05      0.9094748231E+02
          0                 3           2            34  106     1      -0.5399728740E+00      34  106    1      -0.2017497735E+05      0.2672334732E+05      0.4301192221E+05     -0.5399728740E+00
          0                 4           2            63    9     1       0.1154343709E+00      34  106    1      -0.1008748965E+04      0.1336100636E+04      0.2672334732E+05      0.1154343709E+00

    ------------------------------------------------
       NWT REQUIRED            4 OUTER ITERATIONS 
       AND A TOTAL OF          8 INNER ITERATIONS.
    ------------------------------------------------

 OUTPUT CONTROL FOR STRESS PERIOD    1   TIME STEP   82
    SAVE HEAD FOR ALL LAYERS
    SAVE DRAWDOWN FOR ALL LAYERS
    SAVE BUDGET
    PRINT BUDGET
 UBDSV1 SAVING "         STORAGE" ON UNIT   9 AT TIME STEP 82, STRESS PERIOD   1
 UBDSV2 SAVING "   CONSTANT HEAD" ON UNIT   9 AT TIME STEP 82, STRESS PERIOD   1
 UBDSV1 SAVING "FLOW RIGHT FACE " ON UNIT   9 AT TIME STEP 82, STRESS PERIOD   1
 UBDSV1 SAVING "FLOW FRONT FACE " ON UNIT   9 AT TIME STEP 82, STRESS PERIOD   1
 UBDSV4 SAVING "   RIVER LEAKAGE" ON UNIT   9 AT TIME STEP 82, STRESS PERIOD   1
 UBDSV3 SAVING "        RECHARGE" ON UNIT   9 AT TIME STEP 82, STRESS PERIOD   1

 HEAD WILL BE SAVED ON UNIT   37 AT END OF TIME STEP   82, STRESS PERIOD    1

 DRAWDOWN WILL BE SAVED ON UNIT   38 AT END OF TIME STEP   82, STRESS PERIOD    1
1
  VOLUMETRIC BUDGET FOR ENTIRE MODEL AT END OF TIME STEP   82, STRESS PERIOD   1
  ------------------------------------------------------------------------------

     CUMULATIVE VOLUMES      L**3       RATES FOR THIS TIME STEP      L**3/T
     ------------------                 ------------------------

           IN:                                      IN:
           ---                                      ---
             STORAGE =    75826000.0000               STORAGE =      898459.3125
       CONSTANT HEAD =           0.0000         CONSTANT HEAD =           0.0000
       RIVER LEAKAGE =   127649504.0000         RIVER LEAKAGE =      856204.8750
            RECHARGE =        1010.1921              RECHARGE =       1.1991E-07

            TOTAL IN =   203476512.0000              TOTAL IN =     1754664.2500

          OUT:                                     OUT:
          ----                                     ----
             STORAGE =   203148144.0000               STORAGE =     1748787.5000
       CONSTANT HEAD =           0.0000         CONSTANT HEAD =           0.0000
       RIVER LEAKAGE =      355071.0312         RIVER LEAKAGE =        6083.6411
            RECHARGE =           0.0000              RECHARGE =           0.0000

           TOTAL OUT =   203503216.0000             TOTAL OUT =     1754871.1250

            IN - OUT =      -26704.0000              IN - OUT =        -206.8750

 PERCENT DISCREPANCY =          -0.01     PERCENT DISCREPANCY =          -0.01






         TIME SUMMARY AT END OF TIME STEP   82 IN STRESS PERIOD    1
                    SECONDS     MINUTES      HOURS       DAYS        YEARS
                    -----------------------------------------------------------
   TIME STEP LENGTH  86400.      1440.0      24.000      1.0000     2.73785E-03
 STRESS PERIOD TIME 7.08480E+06 1.18080E+05  1968.0      82.000     0.22450    
         TOTAL TIME 7.08480E+06 1.18080E+05  1968.0      82.000     0.22450    
1
 
 SOLVING FOR HEAD 
                                                   Max.-Head-Change                        Max.-Flux-Residual
  Residual-Control   Outer-Iter.   Inner-Iter.     Column Row Layer    Max.-Head-Change    Column Row Layer    Max.-Flux-Residual            L2-New               L2-Old           Solver-Max-Delh
          0                 1           2            34  106     1       0.2643242999E+01      34  106    1       0.8529130093E+05      0.1968713885E+06      0.6772164797E+02      0.2643242999E+01
          0                 2           2            34  106     1      -0.2282808155E+00      34  106    1      -0.8529163528E+04      0.1968735310E+05      0.1968713885E+06     -0.2282808155E+00
          0                 3           2            63    9     1       0.1165510251E+00      34  106    1      -0.4264582088E+03      0.9844334136E+03      0.1968735310E+05      0.1165510251E+00

    ------------------------------------------------
       NWT REQUIRED            3 OUTER ITERATIONS 
       AND A TOTAL OF          6 INNER ITERATIONS.
    ------------------------------------------------

 OUTPUT CONTROL FOR STRESS PERIOD    1   TIME STEP   83
    SAVE HEAD FOR ALL LAYERS
    SAVE DRAWDOWN FOR ALL LAYERS
    SAVE BUDGET
    PRINT BUDGET
 UBDSV1 SAVING "         STORAGE" ON UNIT   9 AT TIME STEP 83, STRESS PERIOD   1
 UBDSV2 SAVING "   CONSTANT HEAD" ON UNIT   9 AT TIME STEP 83, STRESS PERIOD   1
 UBDSV1 SAVING "FLOW RIGHT FACE " ON UNIT   9 AT TIME STEP 83, STRESS PERIOD   1
 UBDSV1 SAVING "FLOW FRONT FACE " ON UNIT   9 AT TIME STEP 83, STRESS PERIOD   1
 UBDSV4 SAVING "   RIVER LEAKAGE" ON UNIT   9 AT TIME STEP 83, STRESS PERIOD   1
 UBDSV3 SAVING "        RECHARGE" ON UNIT   9 AT TIME STEP 83, STRESS PERIOD   1

 HEAD WILL BE SAVED ON UNIT   37 AT END OF TIME STEP   83, STRESS PERIOD    1

 DRAWDOWN WILL BE SAVED ON UNIT   38 AT END OF TIME STEP   83, STRESS PERIOD    1
1
  VOLUMETRIC BUDGET FOR ENTIRE MODEL AT END OF TIME STEP   83, STRESS PERIOD   1
  ------------------------------------------------------------------------------

     CUMULATIVE VOLUMES      L**3       RATES FOR THIS TIME STEP      L**3/T
     ------------------                 ------------------------

           IN:                                      IN:
           ---                                      ---
             STORAGE =    76724000.0000               STORAGE =      898003.1250
       CONSTANT HEAD =           0.0000         CONSTANT HEAD =           0.0000
       RIVER LEAKAGE =   128418568.0000         RIVER LEAKAGE =      769065.3125
            RECHARGE =        1010.1921              RECHARGE =       9.5810E-08

            TOTAL IN =   205143584.0000              TOTAL IN =     1667068.5000

          OUT:                                     OUT:
          ----                                     ----
             STORAGE =   204809312.0000               STORAGE =     1661160.8750
       CONSTANT HEAD =           0.0000         CONSTANT HEAD =           0.0000
       RIVER LEAKAGE =      361158.1875         RIVER LEAKAGE =        6087.1470
            RECHARGE =           0.0000              RECHARGE =           0.0000

           TOTAL OUT =   205170464.0000             TOTAL OUT =     1667248.0000

            IN - OUT =      -26880.0000              IN - OUT =        -179.5000

 PERCENT DISCREPANCY =          -0.01     PERCENT DISCREPANCY =          -0.01






         TIME SUMMARY AT END OF TIME STEP   83 IN STRESS PERIOD    1
                    SECONDS     MINUTES      HOURS       DAYS        YEARS
                    -----------------------------------------------------------
   TIME STEP LENGTH  86400.      1440.0      24.000      1.0000     2.73785E-03
 STRESS PERIOD TIME 7.17120E+06 1.19520E+05  1992.0      83.000     0.22724    
         TOTAL TIME 7.17120E+06 1.19520E+05  1992.0      83.000     0.22724    
1
 
 SOLVING FOR HEAD 
                                                   Max.-Head-Change                        Max.-Flux-Residual
  Residual-Control   Outer-Iter.   Inner-Iter.     Column Row Layer    Max.-Head-Change    Column Row Layer    Max.-Flux-Residual            L2-New               L2-Old           Solver-Max-Delh
          0                 1           2            58   12     1       0.2166874193E+00      37   75    1       0.7855526267E+05      0.1773736689E+06      0.5049162826E+02      0.2166874193E+00
          0                 2           2            58   12     1       0.2936217656E+00      58   12    1       0.8374905598E+04      0.1953384640E+05      0.1773736689E+06      0.2936217656E+00
          0                 3           2            63    9     1       0.1176577968E+00      58   12    1      -0.8374905723E+03      0.1216594192E+04      0.1953384640E+05      0.1176577968E+00

    ------------------------------------------------
       NWT REQUIRED            3 OUTER ITERATIONS 
       AND A TOTAL OF          6 INNER ITERATIONS.
    ------------------------------------------------

 OUTPUT CONTROL FOR STRESS PERIOD    1   TIME STEP   84
    SAVE HEAD FOR ALL LAYERS
    SAVE DRAWDOWN FOR ALL LAYERS
    SAVE BUDGET
    PRINT BUDGET
 UBDSV1 SAVING "         STORAGE" ON UNIT   9 AT TIME STEP 84, STRESS PERIOD   1
 UBDSV2 SAVING "   CONSTANT HEAD" ON UNIT   9 AT TIME STEP 84, STRESS PERIOD   1
 UBDSV1 SAVING "FLOW RIGHT FACE " ON UNIT   9 AT TIME STEP 84, STRESS PERIOD   1
 UBDSV1 SAVING "FLOW FRONT FACE " ON UNIT   9 AT TIME STEP 84, STRESS PERIOD   1
 UBDSV4 SAVING "   RIVER LEAKAGE" ON UNIT   9 AT TIME STEP 84, STRESS PERIOD   1
 UBDSV3 SAVING "        RECHARGE" ON UNIT   9 AT TIME STEP 84, STRESS PERIOD   1

 HEAD WILL BE SAVED ON UNIT   37 AT END OF TIME STEP   84, STRESS PERIOD    1

 DRAWDOWN WILL BE SAVED ON UNIT   38 AT END OF TIME STEP   84, STRESS PERIOD    1
1
  VOLUMETRIC BUDGET FOR ENTIRE MODEL AT END OF TIME STEP   84, STRESS PERIOD   1
  ------------------------------------------------------------------------------

     CUMULATIVE VOLUMES      L**3       RATES FOR THIS TIME STEP      L**3/T
     ------------------                 ------------------------

           IN:                                      IN:
           ---                                      ---
             STORAGE =    77621424.0000               STORAGE =      897425.8125
       CONSTANT HEAD =           0.0000         CONSTANT HEAD =           0.0000
       RIVER LEAKAGE =   129178840.0000         RIVER LEAKAGE =      760275.8750
            RECHARGE =        1010.1921              RECHARGE =       7.6560E-08

            TOTAL IN =   206801280.0000              TOTAL IN =     1657701.7500

          OUT:                                     OUT:
          ----                                     ----
             STORAGE =   206461120.0000               STORAGE =     1651810.1250
       CONSTANT HEAD =           0.0000         CONSTANT HEAD =           0.0000
       RIVER LEAKAGE =      367248.9062         RIVER LEAKAGE =        6090.7061
            RECHARGE =           0.0000              RECHARGE =           0.0000

           TOTAL OUT =   206828368.0000             TOTAL OUT =     1657900.8750

            IN - OUT =      -27088.0000              IN - OUT =        -199.1250

 PERCENT DISCREPANCY =          -0.01     PERCENT DISCREPANCY =          -0.01






         TIME SUMMARY AT END OF TIME STEP   84 IN STRESS PERIOD    1
                    SECONDS     MINUTES      HOURS       DAYS        YEARS
                    -----------------------------------------------------------
   TIME STEP LENGTH  86400.      1440.0      24.000      1.0000     2.73785E-03
 STRESS PERIOD TIME 7.25760E+06 1.20960E+05  2016.0      84.000     0.22998    
         TOTAL TIME 7.25760E+06 1.20960E+05  2016.0      84.000     0.22998    
1
 
 SOLVING FOR HEAD 
                                                   Max.-Head-Change                        Max.-Flux-Residual
  Residual-Control   Outer-Iter.   Inner-Iter.     Column Row Layer    Max.-Head-Change    Column Row Layer    Max.-Flux-Residual            L2-New               L2-Old           Solver-Max-Delh
          0                 1           2            58   12     1       0.3924503806E+00      37   75    1       0.7851936633E+05      0.1765532453E+06      0.6193467195E+02      0.3924503806E+00
          0                 2           2            63    9     1       0.1188593823E+00      37   75    1      -0.7852080765E+04      0.1765549475E+05      0.1765532453E+06      0.1188593823E+00
          0                 3           2            63    9     1       0.1187546254E+00      37   75    1      -0.3926049131E+03      0.8828495756E+03      0.1765549475E+05      0.1187546254E+00

    ------------------------------------------------
       NWT REQUIRED            3 OUTER ITERATIONS 
       AND A TOTAL OF          6 INNER ITERATIONS.
    ------------------------------------------------

 OUTPUT CONTROL FOR STRESS PERIOD    1   TIME STEP   85
    SAVE HEAD FOR ALL LAYERS
    SAVE DRAWDOWN FOR ALL LAYERS
    SAVE BUDGET
    PRINT BUDGET
 UBDSV1 SAVING "         STORAGE" ON UNIT   9 AT TIME STEP 85, STRESS PERIOD   1
 UBDSV2 SAVING "   CONSTANT HEAD" ON UNIT   9 AT TIME STEP 85, STRESS PERIOD   1
 UBDSV1 SAVING "FLOW RIGHT FACE " ON UNIT   9 AT TIME STEP 85, STRESS PERIOD   1
 UBDSV1 SAVING "FLOW FRONT FACE " ON UNIT   9 AT TIME STEP 85, STRESS PERIOD   1
 UBDSV4 SAVING "   RIVER LEAKAGE" ON UNIT   9 AT TIME STEP 85, STRESS PERIOD   1
 UBDSV3 SAVING "        RECHARGE" ON UNIT   9 AT TIME STEP 85, STRESS PERIOD   1

 HEAD WILL BE SAVED ON UNIT   37 AT END OF TIME STEP   85, STRESS PERIOD    1

 DRAWDOWN WILL BE SAVED ON UNIT   38 AT END OF TIME STEP   85, STRESS PERIOD    1
1
  VOLUMETRIC BUDGET FOR ENTIRE MODEL AT END OF TIME STEP   85, STRESS PERIOD   1
  ------------------------------------------------------------------------------

     CUMULATIVE VOLUMES      L**3       RATES FOR THIS TIME STEP      L**3/T
     ------------------                 ------------------------

           IN:                                      IN:
           ---                                      ---
             STORAGE =    78518272.0000               STORAGE =      896849.0000
       CONSTANT HEAD =           0.0000         CONSTANT HEAD =           0.0000
       RIVER LEAKAGE =   129927976.0000         RIVER LEAKAGE =      749132.6250
            RECHARGE =        1010.1921              RECHARGE =       6.1180E-08

            TOTAL IN =   208447264.0000              TOTAL IN =     1645981.6250

          OUT:                                     OUT:
          ----                                     ----
             STORAGE =   208101168.0000               STORAGE =     1640043.7500
       CONSTANT HEAD =           0.0000         CONSTANT HEAD =           0.0000
       RIVER LEAKAGE =      373343.1250         RIVER LEAKAGE =        6094.2158
            RECHARGE =           0.0000              RECHARGE =           0.0000

           TOTAL OUT =   208474512.0000             TOTAL OUT =     1646138.0000

            IN - OUT =      -27248.0000              IN - OUT =        -156.3750

 PERCENT DISCREPANCY =          -0.01     PERCENT DISCREPANCY =          -0.01






         TIME SUMMARY AT END OF TIME STEP   85 IN STRESS PERIOD    1
                    SECONDS     MINUTES      HOURS       DAYS        YEARS
                    -----------------------------------------------------------
   TIME STEP LENGTH  86400.      1440.0      24.000      1.0000     2.73785E-03
 STRESS PERIOD TIME 7.34400E+06 1.22400E+05  2040.0      85.000     0.23272    
         TOTAL TIME 7.34400E+06 1.22400E+05  2040.0      85.000     0.23272    
1
 
 SOLVING FOR HEAD 
                                                   Max.-Head-Change                        Max.-Flux-Residual
  Residual-Control   Outer-Iter.   Inner-Iter.     Column Row Layer    Max.-Head-Change    Column Row Layer    Max.-Flux-Residual            L2-New               L2-Old           Solver-Max-Delh
          0                 1           2            63    9     1       0.1200566893E+00      37   75    1       0.7848338171E+05      0.2219118374E+06      0.4559094488E+02      0.1200566893E+00
          0                 2           2            63    9     1       0.1199483927E+00      37   75    1      -0.7848480833E+04      0.2219132870E+05      0.2219118374E+06      0.1199483927E+00
          0                 3           2            63    9     1       0.1198414370E+00      53   29    1      -0.1150826131E+04      0.1598648113E+04      0.2219132870E+05      0.1198414370E+00
          1                 3           0            63    9     1       0.8388900444E-01      33   65    1      -0.2617028739E+04      0.2618274710E+04      0.1598648113E+04      0.1198414370E+00
          0                 4           2            63    9     1       0.1197665652E+00      53   29    1      -0.3855273321E+03      0.5356549355E+03      0.2618274710E+04      0.1197665652E+00
          1                 4           0            63    9     1       0.8383659421E-01      33   65    1      -0.8881890555E+04      0.8881938492E+04      0.5356549355E+03      0.1197665652E+00
          2                 4           0            63    9     1       0.5868561495E-01      33   65    1      -0.6195209033E+04      0.6197816804E+04      0.8881938492E+04      0.1197665652E+00
          3                 4           0            63    9     1       0.4107992976E-01      33   65    1      -0.4314540597E+04      0.4324040555E+04      0.6197816804E+04      0.1197665652E+00
          4                 4           0            63    9     1       0.2875595035E-01      33   65    1      -0.2998076927E+04      0.3019758014E+04      0.4324040555E+04      0.1197665652E+00
          5                 4           0            63    9     1       0.2012916490E-01      33   65    1      -0.2076554438E+04      0.2117331424E+04      0.3019758014E+04      0.1197665652E+00
                                                   Max.-Head-Change                        Max.-Flux-Residual
  Residual-Control   Outer-Iter.   Inner-Iter.     Column Row Layer    Max.-Head-Change    Column Row Layer    Max.-Flux-Residual            L2-New               L2-Old           Solver-Max-Delh
          6                 4           0            63    9     1       0.1409041519E-01      33   65    1      -0.1431489718E+04      0.1500605479E+04      0.2117331424E+04      0.1197665652E+00
          7                 4           0            63    9     1       0.9863290465E-02      33   65    1      -0.9799449177E+03      0.1089353978E+04      0.1500605479E+04      0.1197665652E+00
          8                 4           0            63    9     1       0.6904303208E-02      33   65    1      -0.6638638055E+03      0.8273575393E+03      0.1089353978E+04      0.1197665652E+00
          9                 4           0            63    9     1       0.4833012163E-02      33   65    1      -0.4426071498E+03      0.6725130799E+03      0.8273575393E+03      0.1197665652E+00
         10                 4           0            63    9     1       0.3383108457E-02      53   29    1      -0.3707476311E+03      0.5900382155E+03      0.6725130799E+03      0.1197665652E+00
          0                 5           2            63    9     1       0.1197635457E+00      53   29    1      -0.3751815415E+03      0.5512644200E+03      0.5900382155E+03      0.1197635457E+00

    ------------------------------------------------
       NWT REQUIRED            5 OUTER ITERATIONS 
       AND A TOTAL OF         10 INNER ITERATIONS.
    ------------------------------------------------

 OUTPUT CONTROL FOR STRESS PERIOD    1   TIME STEP   86
    SAVE HEAD FOR ALL LAYERS
    SAVE DRAWDOWN FOR ALL LAYERS
    SAVE BUDGET
    PRINT BUDGET
 UBDSV1 SAVING "         STORAGE" ON UNIT   9 AT TIME STEP 86, STRESS PERIOD   1
 UBDSV2 SAVING "   CONSTANT HEAD" ON UNIT   9 AT TIME STEP 86, STRESS PERIOD   1
 UBDSV1 SAVING "FLOW RIGHT FACE " ON UNIT   9 AT TIME STEP 86, STRESS PERIOD   1
 UBDSV1 SAVING "FLOW FRONT FACE " ON UNIT   9 AT TIME STEP 86, STRESS PERIOD   1
 UBDSV4 SAVING "   RIVER LEAKAGE" ON UNIT   9 AT TIME STEP 86, STRESS PERIOD   1
 UBDSV3 SAVING "        RECHARGE" ON UNIT   9 AT TIME STEP 86, STRESS PERIOD   1

 HEAD WILL BE SAVED ON UNIT   37 AT END OF TIME STEP   86, STRESS PERIOD    1

 DRAWDOWN WILL BE SAVED ON UNIT   38 AT END OF TIME STEP   86, STRESS PERIOD    1
1
  VOLUMETRIC BUDGET FOR ENTIRE MODEL AT END OF TIME STEP   86, STRESS PERIOD   1
  ------------------------------------------------------------------------------

     CUMULATIVE VOLUMES      L**3       RATES FOR THIS TIME STEP      L**3/T
     ------------------                 ------------------------

           IN:                                      IN:
           ---                                      ---
             STORAGE =    79401800.0000               STORAGE =      883526.0000
       CONSTANT HEAD =           0.0000         CONSTANT HEAD =           0.0000
       RIVER LEAKAGE =   131638208.0000         RIVER LEAKAGE =     1710229.2500
            RECHARGE =        1010.1921              RECHARGE =       4.8892E-08

            TOTAL IN =   211041024.0000              TOTAL IN =     2593755.2500

          OUT:                                     OUT:
          ----                                     ----
             STORAGE =   210688960.0000               STORAGE =     2587788.2500
       CONSTANT HEAD =           0.0000         CONSTANT HEAD =           0.0000
       RIVER LEAKAGE =      379445.1250         RIVER LEAKAGE =        6101.9907
            RECHARGE =           0.0000              RECHARGE =           0.0000

           TOTAL OUT =   211068400.0000             TOTAL OUT =     2593890.2500

            IN - OUT =      -27376.0000              IN - OUT =        -135.0000

 PERCENT DISCREPANCY =          -0.01     PERCENT DISCREPANCY =          -0.01






         TIME SUMMARY AT END OF TIME STEP   86 IN STRESS PERIOD    1
                    SECONDS     MINUTES      HOURS       DAYS        YEARS
                    -----------------------------------------------------------
   TIME STEP LENGTH  86400.      1440.0      24.000      1.0000     2.73785E-03
 STRESS PERIOD TIME 7.43040E+06 1.23840E+05  2064.0      86.000     0.23546    
         TOTAL TIME 7.43040E+06 1.23840E+05  2064.0      86.000     0.23546    
1
 
 SOLVING FOR HEAD 
                                                   Max.-Head-Change                        Max.-Flux-Residual
  Residual-Control   Outer-Iter.   Inner-Iter.     Column Row Layer    Max.-Head-Change    Column Row Layer    Max.-Flux-Residual            L2-New               L2-Old           Solver-Max-Delh
          0                 1           2            63    9     1       0.1210599379E+00      37   75    1       0.7845175542E+05      0.2215908709E+06      0.2991640216E+02      0.1210599379E+00
          0                 2           2            63    9     1       0.1209494864E+00      37   75    1      -0.7845318197E+04      0.2215923711E+05      0.2215908709E+06      0.1209494864E+00
          0                 3           2            63    9     1       0.1208403899E+00      37   75    1      -0.3922667741E+03      0.1108025578E+04      0.2215923711E+05      0.1208403899E+00

    ------------------------------------------------
       NWT REQUIRED            3 OUTER ITERATIONS 
       AND A TOTAL OF          6 INNER ITERATIONS.
    ------------------------------------------------

 OUTPUT CONTROL FOR STRESS PERIOD    1   TIME STEP   87
    SAVE HEAD FOR ALL LAYERS
    SAVE DRAWDOWN FOR ALL LAYERS
    SAVE BUDGET
    PRINT BUDGET
 UBDSV1 SAVING "         STORAGE" ON UNIT   9 AT TIME STEP 87, STRESS PERIOD   1
 UBDSV2 SAVING "   CONSTANT HEAD" ON UNIT   9 AT TIME STEP 87, STRESS PERIOD   1
 UBDSV1 SAVING "FLOW RIGHT FACE " ON UNIT   9 AT TIME STEP 87, STRESS PERIOD   1
 UBDSV1 SAVING "FLOW FRONT FACE " ON UNIT   9 AT TIME STEP 87, STRESS PERIOD   1
 UBDSV4 SAVING "   RIVER LEAKAGE" ON UNIT   9 AT TIME STEP 87, STRESS PERIOD   1
 UBDSV3 SAVING "        RECHARGE" ON UNIT   9 AT TIME STEP 87, STRESS PERIOD   1

 HEAD WILL BE SAVED ON UNIT   37 AT END OF TIME STEP   87, STRESS PERIOD    1

 DRAWDOWN WILL BE SAVED ON UNIT   38 AT END OF TIME STEP   87, STRESS PERIOD    1
1
  VOLUMETRIC BUDGET FOR ENTIRE MODEL AT END OF TIME STEP   87, STRESS PERIOD   1
  ------------------------------------------------------------------------------

     CUMULATIVE VOLUMES      L**3       RATES FOR THIS TIME STEP      L**3/T
     ------------------                 ------------------------

           IN:                                      IN:
           ---                                      ---
             STORAGE =    80284312.0000               STORAGE =      882509.8750
       CONSTANT HEAD =           0.0000         CONSTANT HEAD =           0.0000
       RIVER LEAKAGE =   133330944.0000         RIVER LEAKAGE =     1692733.7500
            RECHARGE =        1010.1921              RECHARGE =       3.9075E-08

            TOTAL IN =   213616256.0000              TOTAL IN =     2575243.5000

          OUT:                                     OUT:
          ----                                     ----
             STORAGE =   213258480.0000               STORAGE =     2569524.0000
       CONSTANT HEAD =           0.0000         CONSTANT HEAD =           0.0000
       RIVER LEAKAGE =      385554.2812         RIVER LEAKAGE =        6109.1709
            RECHARGE =           0.0000              RECHARGE =           0.0000

           TOTAL OUT =   213644032.0000             TOTAL OUT =     2575633.2500

            IN - OUT =      -27776.0000              IN - OUT =        -389.7500

 PERCENT DISCREPANCY =          -0.01     PERCENT DISCREPANCY =          -0.02






         TIME SUMMARY AT END OF TIME STEP   87 IN STRESS PERIOD    1
                    SECONDS     MINUTES      HOURS       DAYS        YEARS
                    -----------------------------------------------------------
   TIME STEP LENGTH  86400.      1440.0      24.000      1.0000     2.73785E-03
 STRESS PERIOD TIME 7.51680E+06 1.25280E+05  2088.0      87.000     0.23819    
         TOTAL TIME 7.51680E+06 1.25280E+05  2088.0      87.000     0.23819    
1
 
 SOLVING FOR HEAD 
                                                   Max.-Head-Change                        Max.-Flux-Residual
  Residual-Control   Outer-Iter.   Inner-Iter.     Column Row Layer    Max.-Head-Change    Column Row Layer    Max.-Flux-Residual            L2-New               L2-Old           Solver-Max-Delh
          0                 1           2            63    9     1       0.1221302799E+00      37   75    1       0.7841983380E+05      0.1591729921E+06      0.5663446880E+02      0.1221302799E+00
          0                 2           2            63    9     1       0.1220175898E+00      37   75    1      -0.7842127099E+04      0.1591744576E+05      0.1591729921E+06      0.1220175898E+00
          0                 3           2            63    9     1       0.1219062699E+00      37   75    1      -0.3921072274E+03      0.7959617446E+03      0.1591744576E+05      0.1219062699E+00

    ------------------------------------------------
       NWT REQUIRED            3 OUTER ITERATIONS 
       AND A TOTAL OF          6 INNER ITERATIONS.
    ------------------------------------------------

 OUTPUT CONTROL FOR STRESS PERIOD    1   TIME STEP   88
    SAVE HEAD FOR ALL LAYERS
    SAVE DRAWDOWN FOR ALL LAYERS
    SAVE BUDGET
    PRINT BUDGET
 UBDSV1 SAVING "         STORAGE" ON UNIT   9 AT TIME STEP 88, STRESS PERIOD   1
 UBDSV2 SAVING "   CONSTANT HEAD" ON UNIT   9 AT TIME STEP 88, STRESS PERIOD   1
 UBDSV1 SAVING "FLOW RIGHT FACE " ON UNIT   9 AT TIME STEP 88, STRESS PERIOD   1
 UBDSV1 SAVING "FLOW FRONT FACE " ON UNIT   9 AT TIME STEP 88, STRESS PERIOD   1
 UBDSV4 SAVING "   RIVER LEAKAGE" ON UNIT   9 AT TIME STEP 88, STRESS PERIOD   1
 UBDSV3 SAVING "        RECHARGE" ON UNIT   9 AT TIME STEP 88, STRESS PERIOD   1

 HEAD WILL BE SAVED ON UNIT   37 AT END OF TIME STEP   88, STRESS PERIOD    1

 DRAWDOWN WILL BE SAVED ON UNIT   38 AT END OF TIME STEP   88, STRESS PERIOD    1
1
  VOLUMETRIC BUDGET FOR ENTIRE MODEL AT END OF TIME STEP   88, STRESS PERIOD   1
  ------------------------------------------------------------------------------

     CUMULATIVE VOLUMES      L**3       RATES FOR THIS TIME STEP      L**3/T
     ------------------                 ------------------------

           IN:                                      IN:
           ---                                      ---
             STORAGE =    81174240.0000               STORAGE =      889931.5000
       CONSTANT HEAD =           0.0000         CONSTANT HEAD =           0.0000
       RIVER LEAKAGE =   134133112.0000         RIVER LEAKAGE =      802167.6250
            RECHARGE =        1010.1921              RECHARGE =       3.1230E-08

            TOTAL IN =   215308352.0000              TOTAL IN =     1692099.1250

          OUT:                                     OUT:
          ----                                     ----
             STORAGE =   214944640.0000               STORAGE =     1686152.5000
       CONSTANT HEAD =           0.0000         CONSTANT HEAD =           0.0000
       RIVER LEAKAGE =      391667.6875         RIVER LEAKAGE =        6113.4092
            RECHARGE =           0.0000              RECHARGE =           0.0000

           TOTAL OUT =   215336304.0000             TOTAL OUT =     1692265.8750

            IN - OUT =      -27952.0000              IN - OUT =        -166.7500

 PERCENT DISCREPANCY =          -0.01     PERCENT DISCREPANCY =          -0.01






         TIME SUMMARY AT END OF TIME STEP   88 IN STRESS PERIOD    1
                    SECONDS     MINUTES      HOURS       DAYS        YEARS
                    -----------------------------------------------------------
   TIME STEP LENGTH  86400.      1440.0      24.000      1.0000     2.73785E-03
 STRESS PERIOD TIME 7.60320E+06 1.26720E+05  2112.0      88.000     0.24093    
         TOTAL TIME 7.60320E+06 1.26720E+05  2112.0      88.000     0.24093    
1
 
 SOLVING FOR HEAD 
                                                   Max.-Head-Change                        Max.-Flux-Residual
  Residual-Control   Outer-Iter.   Inner-Iter.     Column Row Layer    Max.-Head-Change    Column Row Layer    Max.-Flux-Residual            L2-New               L2-Old           Solver-Max-Delh
          0                 1           2            63    9     1       0.1231904201E+00      37   75    1       0.7838374198E+05      0.1534635204E+06      0.4152449784E+02      0.1231904201E+00
          0                 2           2            63    9     1       0.1230754790E+00      37   75    1      -0.7838517771E+04      0.1534650313E+05      0.1534635204E+06      0.1230754790E+00
          0                 3           2            63    9     1       0.1229619232E+00      37   75    1      -0.3919267599E+03      0.7674190254E+03      0.1534650313E+05      0.1229619232E+00

    ------------------------------------------------
       NWT REQUIRED            3 OUTER ITERATIONS 
       AND A TOTAL OF          6 INNER ITERATIONS.
    ------------------------------------------------

 OUTPUT CONTROL FOR STRESS PERIOD    1   TIME STEP   89
    SAVE HEAD FOR ALL LAYERS
    SAVE DRAWDOWN FOR ALL LAYERS
    SAVE BUDGET
    PRINT BUDGET
 UBDSV1 SAVING "         STORAGE" ON UNIT   9 AT TIME STEP 89, STRESS PERIOD   1
 UBDSV2 SAVING "   CONSTANT HEAD" ON UNIT   9 AT TIME STEP 89, STRESS PERIOD   1
 UBDSV1 SAVING "FLOW RIGHT FACE " ON UNIT   9 AT TIME STEP 89, STRESS PERIOD   1
 UBDSV1 SAVING "FLOW FRONT FACE " ON UNIT   9 AT TIME STEP 89, STRESS PERIOD   1
 UBDSV4 SAVING "   RIVER LEAKAGE" ON UNIT   9 AT TIME STEP 89, STRESS PERIOD   1
 UBDSV3 SAVING "        RECHARGE" ON UNIT   9 AT TIME STEP 89, STRESS PERIOD   1

 HEAD WILL BE SAVED ON UNIT   37 AT END OF TIME STEP   89, STRESS PERIOD    1

 DRAWDOWN WILL BE SAVED ON UNIT   38 AT END OF TIME STEP   89, STRESS PERIOD    1
1
  VOLUMETRIC BUDGET FOR ENTIRE MODEL AT END OF TIME STEP   89, STRESS PERIOD   1
  ------------------------------------------------------------------------------

     CUMULATIVE VOLUMES      L**3       RATES FOR THIS TIME STEP      L**3/T
     ------------------                 ------------------------

           IN:                                      IN:
           ---                                      ---
             STORAGE =    82067904.0000               STORAGE =      893667.5000
       CONSTANT HEAD =           0.0000         CONSTANT HEAD =           0.0000
       RIVER LEAKAGE =   134801392.0000         RIVER LEAKAGE =      668272.3125
            RECHARGE =        1010.1921              RECHARGE =       2.4961E-08

            TOTAL IN =   216870304.0000              TOTAL IN =     1561939.7500

          OUT:                                     OUT:
          ----                                     ----
             STORAGE =   216500592.0000               STORAGE =     1555956.2500
       CONSTANT HEAD =           0.0000         CONSTANT HEAD =           0.0000
       RIVER LEAKAGE =      397784.4062         RIVER LEAKAGE =        6116.7109
            RECHARGE =           0.0000              RECHARGE =           0.0000

           TOTAL OUT =   216898384.0000             TOTAL OUT =     1562073.0000

            IN - OUT =      -28080.0000              IN - OUT =        -133.2500

 PERCENT DISCREPANCY =          -0.01     PERCENT DISCREPANCY =          -0.01






         TIME SUMMARY AT END OF TIME STEP   89 IN STRESS PERIOD    1
                    SECONDS     MINUTES      HOURS       DAYS        YEARS
                    -----------------------------------------------------------
   TIME STEP LENGTH  86400.      1440.0      24.000      1.0000     2.73785E-03
 STRESS PERIOD TIME 7.68960E+06 1.28160E+05  2136.0      89.000     0.24367    
         TOTAL TIME 7.68960E+06 1.28160E+05  2136.0      89.000     0.24367    
1
 
 SOLVING FOR HEAD 
                                                   Max.-Head-Change                        Max.-Flux-Residual
  Residual-Control   Outer-Iter.   Inner-Iter.     Column Row Layer    Max.-Head-Change    Column Row Layer    Max.-Flux-Residual            L2-New               L2-Old           Solver-Max-Delh
          0                 1           2            43   59     1       0.9986108442E+00      34   98    1       0.3626455811E+06      0.7835752871E+06      0.4017957419E+02      0.9986108442E+00
          0                 2           2            37   75     1       0.1959307688E+02      34   98    1      -0.3626650743E+05      0.7838723426E+05      0.7835752871E+06      0.1959307688E+02
          1                 2           0            37   75     1       0.1371515358E+02      37   75    1      -0.5482245578E+06      0.5482383801E+06      0.7838723426E+05      0.1959307688E+02
          2                 2           0            37   75     1       0.9600607343E+01      37   75    1      -0.3806298192E+06      0.3815243152E+06      0.5482383801E+06      0.1959307688E+02
          3                 2           0            37   75     1       0.6720425026E+01      37   75    1      -0.2633134944E+06      0.2665900273E+06      0.3815243152E+06      0.1959307688E+02
          4                 2           0            37   75     1       0.4704297438E+01      37   75    1      -0.1811920635E+06      0.1886611482E+06      0.2665900273E+06      0.1959307688E+02
          5                 2           0            37   75     1       0.3293008150E+01      37   75    1      -0.1237070606E+06      0.1375696464E+06      0.1886611482E+06      0.1959307688E+02
          6                 2           0            37   75     1       0.2305105666E+01      37   75    1      -0.8346755804E+05      0.1061113708E+06      0.1375696464E+06      0.1959307688E+02
          7                 2           0            37   75     1       0.1613573939E+01      37   75    1      -0.5529990617E+05      0.8862467759E+05      0.1061113708E+06      0.1959307688E+02
          0                 3           2            37   75     1      -0.1185597359E+01      37   75    1      -0.3558254992E+05      0.8019602907E+05      0.8862467759E+05     -0.1185597359E+01
                                                   Max.-Head-Change                        Max.-Flux-Residual
  Residual-Control   Outer-Iter.   Inner-Iter.     Column Row Layer    Max.-Head-Change    Column Row Layer    Max.-Flux-Residual            L2-New               L2-Old           Solver-Max-Delh
          0                 4           2            63    9     1       0.1239977481E+00      37   75    1      -0.1779142710E+04      0.4009217927E+04      0.8019602907E+05      0.1239977481E+00

    ------------------------------------------------
       NWT REQUIRED            4 OUTER ITERATIONS 
       AND A TOTAL OF          8 INNER ITERATIONS.
    ------------------------------------------------

 OUTPUT CONTROL FOR STRESS PERIOD    1   TIME STEP   90
    SAVE HEAD FOR ALL LAYERS
    SAVE DRAWDOWN FOR ALL LAYERS
    SAVE BUDGET
    PRINT BUDGET
 UBDSV1 SAVING "         STORAGE" ON UNIT   9 AT TIME STEP 90, STRESS PERIOD   1
 UBDSV2 SAVING "   CONSTANT HEAD" ON UNIT   9 AT TIME STEP 90, STRESS PERIOD   1
 UBDSV1 SAVING "FLOW RIGHT FACE " ON UNIT   9 AT TIME STEP 90, STRESS PERIOD   1
 UBDSV1 SAVING "FLOW FRONT FACE " ON UNIT   9 AT TIME STEP 90, STRESS PERIOD   1
 UBDSV4 SAVING "   RIVER LEAKAGE" ON UNIT   9 AT TIME STEP 90, STRESS PERIOD   1
 UBDSV3 SAVING "        RECHARGE" ON UNIT   9 AT TIME STEP 90, STRESS PERIOD   1

 HEAD WILL BE SAVED ON UNIT   37 AT END OF TIME STEP   90, STRESS PERIOD    1

 DRAWDOWN WILL BE SAVED ON UNIT   38 AT END OF TIME STEP   90, STRESS PERIOD    1
1
  VOLUMETRIC BUDGET FOR ENTIRE MODEL AT END OF TIME STEP   90, STRESS PERIOD   1
  ------------------------------------------------------------------------------

     CUMULATIVE VOLUMES      L**3       RATES FOR THIS TIME STEP      L**3/T
     ------------------                 ------------------------

           IN:                                      IN:
           ---                                      ---
             STORAGE =    82946768.0000               STORAGE =      878863.3750
       CONSTANT HEAD =           0.0000         CONSTANT HEAD =           0.0000
       RIVER LEAKAGE =   142421232.0000         RIVER LEAKAGE =     7619840.0000
            RECHARGE =        1010.1921              RECHARGE =       1.9952E-08

            TOTAL IN =   225369008.0000              TOTAL IN =     8498703.0000

          OUT:                                     OUT:
          ----                                     ----
             STORAGE =   224994944.0000               STORAGE =     8494346.0000
       CONSTANT HEAD =           0.0000         CONSTANT HEAD =           0.0000
       RIVER LEAKAGE =      403934.5000         RIVER LEAKAGE =        6150.1079
            RECHARGE =           0.0000              RECHARGE =           0.0000

           TOTAL OUT =   225398880.0000             TOTAL OUT =     8500496.0000

            IN - OUT =      -29872.0000              IN - OUT =       -1793.0000

 PERCENT DISCREPANCY =          -0.01     PERCENT DISCREPANCY =          -0.02






         TIME SUMMARY AT END OF TIME STEP   90 IN STRESS PERIOD    1
                    SECONDS     MINUTES      HOURS       DAYS        YEARS
                    -----------------------------------------------------------
   TIME STEP LENGTH  86400.      1440.0      24.000      1.0000     2.73785E-03
 STRESS PERIOD TIME 7.77600E+06 1.29600E+05  2160.0      90.000     0.24641    
         TOTAL TIME 7.77600E+06 1.29600E+05  2160.0      90.000     0.24641    
1
 
 SOLVING FOR HEAD 
                                                   Max.-Head-Change                        Max.-Flux-Residual
  Residual-Control   Outer-Iter.   Inner-Iter.     Column Row Layer    Max.-Head-Change    Column Row Layer    Max.-Flux-Residual            L2-New               L2-Old           Solver-Max-Delh
          0                 1           2            36   47     1       0.4580879524E+04      26  115    1       0.1732846254E+06      0.6415290725E+06      0.2007665567E+03      0.4580879524E+04
          1                 1           0            36   47     1       0.3206615612E+04      39   50    1      -0.7178709230E+09      0.1055334806E+10      0.6415290725E+06      0.4580879524E+04
          2                 1           0            36   47     1       0.2244630890E+04      39   50    1      -0.5017372398E+09      0.7377649884E+09      0.1055334806E+10      0.4580879524E+04
          3                 1           0            36   47     1       0.1571241596E+04      39   50    1      -0.3504436641E+09      0.5154697129E+09      0.7377649884E+09      0.4580879524E+04
          4                 1           0            36   47     1       0.1099869099E+04      39   50    1      -0.2445381630E+09      0.3598681862E+09      0.5154697129E+09      0.4580879524E+04
          5                 1           0            36   47     1       0.7699083561E+03      39   50    1      -0.1704043134E+09      0.2509520635E+09      0.3598681862E+09      0.4580879524E+04
          6                 1           0            36   47     1       0.5389358401E+03      39   50    1      -0.1185106196E+09      0.1747181103E+09      0.2509520635E+09      0.4580879524E+04
          7                 1           0            36   47     1       0.3772550816E+03      39   50    1      -0.8218503460E+08      0.1213695649E+09      0.1747181103E+09      0.4580879524E+04
          8                 1           0            36   47     1       0.2640785526E+03      39   50    1      -0.5675712551E+08      0.8404639607E+08      0.1213695649E+09      0.4580879524E+04
          9                 1           0            36   47     1       0.1848549837E+03      39   50    1      -0.3895758945E+08      0.5793518383E+08      0.8404639607E+08      0.4580879524E+04
                                                   Max.-Head-Change                        Max.-Flux-Residual
  Residual-Control   Outer-Iter.   Inner-Iter.     Column Row Layer    Max.-Head-Change    Column Row Layer    Max.-Flux-Residual            L2-New               L2-Old           Solver-Max-Delh
         10                 1           0            36   47     1       0.1293984864E+03      39   50    1      -0.2649792626E+08      0.3965134845E+08      0.5793518383E+08      0.4580879524E+04
         11                 1           0            36   47     1       0.9057893893E+02      39   50    1      -0.1777616386E+08      0.2686848900E+08      0.3965134845E+08      0.4580879524E+04
         12                 1           0            36   47     1       0.6340525617E+02      39   50    1      -0.1167093482E+08      0.1774710861E+08      0.2686848900E+08      0.4580879524E+04
         13                 1           0            36   47     1       0.4438367856E+02      39   50    1      -0.7397277915E+07      0.1120588732E+08      0.1774710861E+08      0.4580879524E+04
         14                 1           0            36   47     1       0.3106857446E+02      39   50    1      -0.4405719940E+07      0.6804858463E+07      0.1120588732E+08      0.4580879524E+04
         15                 1           0            36   47     1       0.2174800175E+02      39   50    1      -0.2311630296E+07      0.3761716769E+07      0.6804858463E+07      0.4580879524E+04
         16                 1           0            36   47     1       0.1522360097E+02      39   50    1      -0.1265499697E+07      0.2144043772E+07      0.3761716769E+07      0.4580879524E+04
         17                 1           0            36   47     1       0.1065652050E+02      39   50    1      -0.6490660397E+06      0.1193873665E+07      0.2144043772E+07      0.4580879524E+04
         18                 1           0            36   47     1       0.7459564221E+01      39   50    1      -0.2180122061E+06      0.7506198357E+06      0.1193873665E+07      0.4580879524E+04
          0                 2           2            36   47     1       0.4577464291E+04      26  115    1       0.1729742285E+06      0.6413830615E+06      0.7506198357E+06      0.4577464291E+04
                                                   Max.-Head-Change                        Max.-Flux-Residual
  Residual-Control   Outer-Iter.   Inner-Iter.     Column Row Layer    Max.-Head-Change    Column Row Layer    Max.-Flux-Residual            L2-New               L2-Old           Solver-Max-Delh
          1                 2           0            36   47     1       0.3204224949E+04      39   50    1      -0.7185370117E+09      0.1026019276E+10      0.6413830615E+06      0.4577464291E+04
          2                 2           0            36   47     1       0.2242957426E+04      39   50    1      -0.5025554568E+09      0.7176556709E+09      0.1026019276E+10      0.4577464291E+04
          3                 2           0            36   47     1       0.1570070172E+04      39   50    1      -0.3513683710E+09      0.5018043943E+09      0.7176556709E+09      0.4577464291E+04
          4                 2           0            36   47     1       0.1099049101E+04      39   50    1      -0.2455374127E+09      0.3507131526E+09      0.5018043943E+09      0.4577464291E+04
          5                 2           0            36   47     1       0.7693343579E+03      39   50    1      -0.1714557431E+09      0.2449535040E+09      0.3507131526E+09      0.4577464291E+04
          6                 2           0            36   47     1       0.5385340414E+03      39   50    1      -0.1195985753E+09      0.1709277440E+09      0.2449535040E+09      0.4577464291E+04
          7                 2           0            36   47     1       0.3769738225E+03      39   50    1      -0.8329855850E+08      0.1191231655E+09      0.1709277440E+09      0.4577464291E+04
          8                 2           0            36   47     1       0.2638816713E+03      39   50    1      -0.5788854714E+08      0.8287803118E+08      0.1191231655E+09      0.4577464291E+04
          9                 2           0            36   47     1       0.1847171668E+03      39   50    1      -0.4010153950E+08      0.5751760233E+08      0.8287803118E+08      0.4577464291E+04
         10                 2           0            36   47     1       0.1293020145E+03      39   50    1      -0.2765064489E+08      0.3975603028E+08      0.5751760233E+08      0.4577464291E+04
                                                   Max.-Head-Change                        Max.-Flux-Residual
  Residual-Control   Outer-Iter.   Inner-Iter.     Column Row Layer    Max.-Head-Change    Column Row Layer    Max.-Flux-Residual            L2-New               L2-Old           Solver-Max-Delh
         11                 2           0            36   47     1       0.9051140863E+02      39   50    1      -0.1893502140E+08      0.2732962648E+08      0.3975603028E+08      0.4577464291E+04
         12                 2           0            36   47     1       0.6335798496E+02      39   50    1      -0.1283408828E+08      0.1851000701E+08      0.2732962648E+08      0.4577464291E+04
         13                 2           0            36   47     1       0.4435058872E+02      39   50    1      -0.8563438611E+07      0.1208385921E+08      0.1851000701E+08      0.4577464291E+04
         14                 2           0            36   47     1       0.3104541157E+02      39   50    1      -0.5573985807E+07      0.7650469019E+07      0.1208385921E+08      0.4577464291E+04
         15                 2           0            36   47     1       0.2173178773E+02      39   50    1      -0.3481369523E+07      0.4644385486E+07      0.7650469019E+07      0.4577464291E+04
         16                 2           0            36   47     1       0.1521225115E+02      39   50    1      -0.2016538965E+07      0.2706821579E+07      0.4644385486E+07      0.4577464291E+04
         17                 2           0            36   47     1       0.1064857563E+02      39   50    1      -0.1352903862E+07      0.1791628719E+07      0.2706821579E+07      0.4577464291E+04
         18                 2           0            36   47     1       0.7454002811E+01      39   50    1      -0.9215496783E+06      0.1226633293E+07      0.1791628719E+07      0.4577464291E+04
         19                 2           0            36   47     1       0.5217801879E+01      39   50    1      -0.6198218070E+06      0.9064295550E+06      0.1226633293E+07      0.4577464291E+04
         20                 2           0            36   47     1       0.3652461253E+01      39   50    1      -0.4087201264E+06      0.7609303760E+06      0.9064295550E+06      0.4577464291E+04
                                                   Max.-Head-Change                        Max.-Flux-Residual
  Residual-Control   Outer-Iter.   Inner-Iter.     Column Row Layer    Max.-Head-Change    Column Row Layer    Max.-Flux-Residual            L2-New               L2-Old           Solver-Max-Delh
          0                 3           2            36   47     1       0.4575793931E+04      39   50    1      -0.2610017870E+06      0.6908548112E+06      0.7609303760E+06      0.4575793931E+04
          1                 3           0            36   47     1       0.3203055697E+04      36   47    1      -0.7039132328E+09      0.7286480283E+09      0.6908548112E+06      0.4575793931E+04
          2                 3           0            36   47     1       0.2242138950E+04      36   47    1      -0.4923194858E+09      0.5098272596E+09      0.7286480283E+09      0.4575793931E+04
          3                 3           0            36   47     1       0.1569497238E+04      36   47    1      -0.3442038653E+09      0.3566570407E+09      0.5098272596E+09      0.4575793931E+04
          4                 3           0            36   47     1       0.1098648048E+04      36   47    1      -0.2405229328E+09      0.2494440680E+09      0.3566570407E+09      0.4575793931E+04
          5                 3           0            36   47     1       0.7690536205E+03      36   47    1      -0.1679462813E+09      0.1744004588E+09      0.2494440680E+09      0.4575793931E+04
          6                 3           0            36   47     1       0.5383375252E+03      36   47    1      -0.1171426261E+09      0.1218774882E+09      0.1744004588E+09      0.4575793931E+04
          7                 3           0            36   47     1       0.3768362612E+03      36   47    1      -0.8158006801E+08      0.8512908651E+08      0.1218774882E+09      0.4575793931E+04
          8                 3           0            36   47     1       0.2637853784E+03      36   47    1      -0.5668627781E+08      0.5942870654E+08      0.8512908651E+08      0.4575793931E+04
          9                 3           0            36   47     1       0.1846497617E+03      36   47    1      -0.3926062496E+08      0.4145178612E+08      0.5942870654E+08      0.4575793931E+04
                                                   Max.-Head-Change                        Max.-Flux-Residual
  Residual-Control   Outer-Iter.   Inner-Iter.     Column Row Layer    Max.-Head-Change    Column Row Layer    Max.-Flux-Residual            L2-New               L2-Old           Solver-Max-Delh
         10                 3           0            36   47     1       0.1292548310E+03      36   47    1      -0.2706266818E+08      0.2885387569E+08      0.4145178612E+08      0.4575793931E+04
         11                 3           0            36   47     1       0.9047838016E+02      36   47    1      -0.1852410388E+08      0.2004028836E+08      0.2885387569E+08      0.4575793931E+04
         12                 3           0            36   47     1       0.6333486503E+02      36   47    1      -0.1254712539E+08      0.1372774297E+08      0.2004028836E+08      0.4575793931E+04
         13                 3           0            36   47     1       0.4433440477E+02      36   47    1      -0.8363243020E+07      0.8993306658E+07      0.1372774297E+08      0.4575793931E+04
         14                 3           0            36   47     1       0.3103408281E+02      36   47    1      -0.5434527432E+07      0.5722660038E+07      0.8993306658E+07      0.4575793931E+04
         15                 3           0            36   47     1       0.2172385760E+02      36   47    1      -0.3384426489E+07      0.3553980561E+07      0.5722660038E+07      0.4575793931E+04
         16                 3           0            36   47     1       0.1520670006E+02      36   47    1      -0.1949355853E+07      0.2124045319E+07      0.3553980561E+07      0.4575793931E+04
         17                 3           0            36   47     1       0.1064468986E+02      36   47    1      -0.1272024613E+07      0.1477104425E+07      0.2124045319E+07      0.4575793931E+04
         18                 3           0            36   47     1       0.7451282775E+01      36   47    1      -0.8142287538E+06      0.1079525519E+07      0.1477104425E+07      0.4575793931E+04
         19                 3           0            36   47     1       0.5215897853E+01      36   47    1      -0.4940193220E+06      0.8509346915E+06      0.1079525519E+07      0.4575793931E+04
                                                   Max.-Head-Change                        Max.-Flux-Residual
  Residual-Control   Outer-Iter.   Inner-Iter.     Column Row Layer    Max.-Head-Change    Column Row Layer    Max.-Flux-Residual            L2-New               L2-Old           Solver-Max-Delh
          0                 4           2            35   40     1       0.1569648575E+04      36   47    1      -0.2699940792E+06      0.7398362158E+06      0.8509346915E+06      0.1569648575E+04
          1                 4           0            35   40     1       0.1098753984E+04      37   48    1      -0.7439494167E+08      0.1810916403E+09      0.7398362158E+06      0.1569648575E+04
          2                 4           0            35   40     1       0.7691277754E+03      37   48    1      -0.5227876335E+08      0.1274265838E+09      0.1810916403E+09      0.1569648575E+04
          3                 4           0            35   40     1       0.5383894336E+03      37   48    1      -0.3679743879E+08      0.8987201890E+08      0.1274265838E+09      0.1569648575E+04
          4                 4           0            35   40     1       0.3768725971E+03      37   48    1      -0.2596051178E+08      0.6359913694E+08      0.8987201890E+08      0.1569648575E+04
          5                 4           0            35   40     1       0.2638108135E+03      37   48    1      -0.1837466300E+08      0.4521660959E+08      0.6359913694E+08      0.1569648575E+04
          6                 4           0            35   40     1       0.1846675663E+03      37   48    1      -0.1306456895E+08      0.3235831763E+08      0.4521660959E+08      0.1569648575E+04
          7                 4           0            35   40     1       0.1292672942E+03      37   48    1      -0.9347506081E+07      0.2339554585E+08      0.3235831763E+08      0.1569648575E+04
          8                 4           0            35   40     1       0.9048710440E+02      37   48    1      -0.6745581276E+07      0.1716432983E+08      0.2339554585E+08      0.1569648575E+04
          9                 4           0            35   40     1       0.6334097200E+02      35   40    1      -0.4954535303E+07      0.1279133728E+08      0.1716432983E+08      0.1569648575E+04
                                                   Max.-Head-Change                        Max.-Flux-Residual
  Residual-Control   Outer-Iter.   Inner-Iter.     Column Row Layer    Max.-Head-Change    Column Row Layer    Max.-Flux-Residual            L2-New               L2-Old           Solver-Max-Delh
         10                 4           0            35   40     1       0.4433867965E+02      35   40    1      -0.3714506305E+07      0.9626724707E+07      0.1279133728E+08      0.1569648575E+04
         11                 4           0            35   40     1       0.3103707522E+02      35   40    1      -0.2846490015E+07      0.7352702546E+07      0.9626724707E+07      0.1569648575E+04
         12                 4           0            35   40     1       0.2172595229E+02      35   40    1      -0.2238881341E+07      0.5415967502E+07      0.7352702546E+07      0.1569648575E+04
         13                 4           0            35   40     1       0.1520816634E+02      35   40    1      -0.1561227956E+07      0.3288866068E+07      0.5415967502E+07      0.1569648575E+04
         14                 4           0            35   40     1       0.1064571626E+02      35   40    1      -0.9070625236E+06      0.1766823757E+07      0.3288866068E+07      0.1569648575E+04
         15                 4           0            35   40     1       0.7452001254E+01      35   40    1      -0.4496522637E+06      0.9806409586E+06      0.1766823757E+07      0.1569648575E+04
          0                 5           2            35   46     1       0.1456600389E+04      36   47    1      -0.2687763584E+06      0.7538843241E+06      0.9806409586E+06      0.1456600389E+04
          1                 5           0            35   46     1       0.1019620255E+04      35   47    1      -0.7418401002E+08      0.1489358589E+09      0.7538843241E+06      0.1456600389E+04
          2                 5           0            35   46     1       0.7137341664E+03      35   47    1      -0.5190210298E+08      0.1050502622E+09      0.1489358589E+09      0.1456600389E+04
          3                 5           0            35   46     1       0.4996139079E+03      35   47    1      -0.3630476832E+08      0.7434340857E+08      0.1050502622E+09      0.1456600389E+04
                                                   Max.-Head-Change                        Max.-Flux-Residual
  Residual-Control   Outer-Iter.   Inner-Iter.     Column Row Layer    Max.-Head-Change    Column Row Layer    Max.-Flux-Residual            L2-New               L2-Old           Solver-Max-Delh
          4                 5           0            35   46     1       0.3497297296E+03      35   47    1      -0.2538663424E+08      0.5286664711E+08      0.7434340857E+08      0.1456600389E+04
          5                 5           0            35   46     1       0.2448108066E+03      35   47    1      -0.1774394051E+08      0.3784428680E+08      0.5286664711E+08      0.1456600389E+04
          6                 5           0            35   46     1       0.1713675617E+03      35   47    1      -0.1239405500E+08      0.2733637433E+08      0.3784428680E+08      0.1456600389E+04
          7                 5           0            35   46     1       0.1199572911E+03      35   47    1      -0.8649135201E+07      0.2002307232E+08      0.2733637433E+08      0.1456600389E+04
          8                 5           0            35   46     1       0.8397010236E+02      35   46    1      -0.6129051692E+07      0.1495021717E+08      0.2002307232E+08      0.1456600389E+04
          9                 5           0            35   46     1       0.5877907065E+02      35   46    1      -0.4602366349E+07      0.1139403019E+08      0.1495021717E+08      0.1456600389E+04
         10                 5           0            35   46     1       0.4114534875E+02      35   46    1      -0.3533690133E+07      0.8849854339E+07      0.1139403019E+08      0.1456600389E+04
         11                 5           0            35   46     1       0.2880174364E+02      35   46    1      -0.2785616796E+07      0.6944586428E+07      0.8849854339E+07      0.1456600389E+04
         12                 5           0            35   46     1       0.2016122020E+02      35   46    1      -0.2261965468E+07      0.5547456985E+07      0.6944586428E+07      0.1456600389E+04
         13                 5           0            35   46     1       0.1411285390E+02      35   46    1      -0.1837166828E+07      0.4063473217E+07      0.5547456985E+07      0.1456600389E+04
                                                   Max.-Head-Change                        Max.-Flux-Residual
  Residual-Control   Outer-Iter.   Inner-Iter.     Column Row Layer    Max.-Head-Change    Column Row Layer    Max.-Flux-Residual            L2-New               L2-Old           Solver-Max-Delh
         14                 5           0            35   46     1       0.9878997563E+01      35   46    1      -0.1229622047E+07      0.2683571022E+07      0.4063473217E+07      0.1456600389E+04
         15                 5           0            35   46     1       0.6915298176E+01      35   46    1      -0.8047762294E+06      0.1775450446E+07      0.2683571022E+07      0.1456600389E+04
         16                 5           0            35   46     1       0.4840708641E+01      35   46    1      -0.5075975686E+06      0.1217682527E+07      0.1775450446E+07      0.1456600389E+04
         17                 5           0            35   46     1       0.3388495991E+01      38   50    1      -0.3151904560E+06      0.9243456902E+06      0.1217682527E+07      0.1456600389E+04
          0                 6           2            35   45     1       0.1349242159E+04      36   47    1      -0.2681823598E+06      0.8080807520E+06      0.9243456902E+06      0.1349242159E+04
          1                 6           0            35   45     1       0.9444694953E+03      35   47    1      -0.7421679931E+08      0.1161841916E+09      0.8080807520E+06      0.1349242159E+04
          2                 6           0            35   45     1       0.6611286355E+03      35   47    1      -0.5197688998E+08      0.8189690658E+08      0.1161841916E+09      0.1349242159E+04
          3                 6           0            35   45     1       0.4627900370E+03      35   47    1      -0.3640895372E+08      0.5791087363E+08      0.8189690658E+08      0.1349242159E+04
          4                 6           0            35   45     1       0.3239530203E+03      35   47    1      -0.2551139852E+08      0.4114150310E+08      0.5791087363E+08      0.1349242159E+04
          5                 6           0            35   45     1       0.2267671104E+03      35   47    1      -0.1788311001E+08      0.2941573632E+08      0.4114150310E+08      0.1349242159E+04
                                                   Max.-Head-Change                        Max.-Flux-Residual
  Residual-Control   Outer-Iter.   Inner-Iter.     Column Row Layer    Max.-Head-Change    Column Row Layer    Max.-Flux-Residual            L2-New               L2-Old           Solver-Max-Delh
          6                 6           0            35   45     1       0.1587369746E+03      35   47    1      -0.1254330814E+08      0.2121205435E+08      0.2941573632E+08      0.1349242159E+04
          7                 6           0            35   45     1       0.1111158803E+03      35   47    1      -0.8805446900E+07      0.1551828860E+08      0.2121205435E+08      0.1349242159E+04
          8                 6           0            35   45     1       0.7778111489E+02      35   47    1      -0.6188951244E+07      0.1158669938E+08      0.1551828860E+08      0.1349242159E+04
          9                 6           0            35   45     1       0.5444677949E+02      35   47    1      -0.4357408362E+07      0.8829359779E+07      0.1158669938E+08      0.1349242159E+04
         10                 6           0            35   45     1       0.3811274500E+02      35   45    1      -0.3169727899E+07      0.6867402914E+07      0.8829359779E+07      0.1349242159E+04
         11                 6           0            35   45     1       0.2667892104E+02      34   41    1      -0.2551777500E+07      0.5265742810E+07      0.6867402914E+07      0.1349242159E+04
         12                 6           0            35   45     1       0.1867524441E+02      34   41    1      -0.2169616309E+07      0.4156408670E+07      0.5265742810E+07      0.1349242159E+04
         13                 6           0            35   45     1       0.1307267087E+02      35   45    1      -0.1760178071E+07      0.3302300492E+07      0.4156408670E+07      0.1349242159E+04
         14                 6           0            35   45     1       0.9150869450E+01      35   45    1      -0.1197387284E+07      0.2303835548E+07      0.3302300492E+07      0.1349242159E+04
         15                 6           0            35   45     1       0.6405608506E+01      34   41    1      -0.8326743222E+06      0.1652595879E+07      0.2303835548E+07      0.1349242159E+04
                                                   Max.-Head-Change                        Max.-Flux-Residual
  Residual-Control   Outer-Iter.   Inner-Iter.     Column Row Layer    Max.-Head-Change    Column Row Layer    Max.-Flux-Residual            L2-New               L2-Old           Solver-Max-Delh
         16                 6           0            35   45     1       0.4483925878E+01      34   41    1      -0.5789280782E+06      0.1250235016E+07      0.1652595879E+07      0.1349242159E+04
         17                 6           0            35   45     1       0.3138748061E+01      34   41    1      -0.4013819874E+06      0.1021947393E+07      0.1250235016E+07      0.1349242159E+04
         18                 6           0            35   45     1       0.2197123605E+01      34   41    1      -0.2771371347E+06      0.9009860853E+06      0.1021947393E+07      0.1349242159E+04
          0                 7           2            35   47     1       0.9402381251E+03      36   47    1      -0.2677674752E+06      0.8439147919E+06      0.9009860853E+06      0.9402381251E+03
          1                 7           0            35   47     1       0.6581666764E+03      35   47    1      -0.7445019118E+08      0.7596995567E+08      0.8439147919E+06      0.9402381251E+03
          2                 7           0            35   47     1       0.4607166656E+03      35   47    1      -0.5217648005E+08      0.5341133086E+08      0.7596995567E+08      0.9402381251E+03
          3                 7           0            35   47     1       0.3225016604E+03      35   47    1      -0.3658488252E+08      0.3764214139E+08      0.5341133086E+08      0.9402381251E+03
          4                 7           0            35   47     1       0.2257511585E+03      35   47    1      -0.2567076444E+08      0.2663425687E+08      0.3764214139E+08      0.9402381251E+03
          5                 7           0            35   47     1       0.1580258082E+03      35   47    1      -0.1803088191E+08      0.1894803467E+08      0.2663425687E+08      0.9402381251E+03
          6                 7           0            35   47     1       0.1106180639E+03      35   47    1      -0.1268296423E+08      0.1357042482E+08      0.1894803467E+08      0.9402381251E+03
                                                   Max.-Head-Change                        Max.-Flux-Residual
  Residual-Control   Outer-Iter.   Inner-Iter.     Column Row Layer    Max.-Head-Change    Column Row Layer    Max.-Flux-Residual            L2-New               L2-Old           Solver-Max-Delh
          7                 7           0            35   47     1       0.7743264339E+02      35   47    1      -0.8939421920E+07      0.9879384828E+07      0.1357042482E+08      0.9402381251E+03
          8                 7           0            35   47     1       0.5420284945E+02      35   47    1      -0.6318948873E+07      0.7378518744E+07      0.9879384828E+07      0.9402381251E+03
          9                 7           0            35   47     1       0.3794199397E+02      35   47    1      -0.4484622282E+07      0.5627228128E+07      0.7378518744E+07      0.9402381251E+03
         10                 7           0            35   47     1       0.2655939533E+02      35   47    1      -0.3200593689E+07      0.4374409352E+07      0.5627228128E+07      0.9402381251E+03
         11                 7           0            35   47     1       0.1859157641E+02      35   47    1      -0.2301773690E+07      0.3108687068E+07      0.4374409352E+07      0.9402381251E+03
         12                 7           0            35   47     1       0.1301410327E+02      35   47    1      -0.1606445975E+07      0.2188822711E+07      0.3108687068E+07      0.9402381251E+03
         13                 7           0            35   47     1       0.9109872132E+01      35   47    1      -0.1046418680E+07      0.1543087188E+07      0.2188822711E+07      0.9402381251E+03
         14                 7           0            35   47     1       0.6376910384E+01      35   47    1      -0.6547705141E+06      0.1163565335E+07      0.1543087188E+07      0.9402381251E+03
         15                 7           0            35   47     1       0.4463837193E+01      35   47    1      -0.3807985596E+06      0.9731069686E+06      0.1163565335E+07      0.9402381251E+03
          0                 8           2            34   40     1       0.6093908971E+03      36   47    1      -0.2665584490E+06      0.8867803131E+06      0.9731069686E+06      0.6093908971E+03
                                                   Max.-Head-Change                        Max.-Flux-Residual
  Residual-Control   Outer-Iter.   Inner-Iter.     Column Row Layer    Max.-Head-Change    Column Row Layer    Max.-Flux-Residual            L2-New               L2-Old           Solver-Max-Delh
          1                 8           0            34   40     1       0.4265736207E+03      34   40    1      -0.1254252420E+08      0.1318036670E+08      0.8867803131E+06      0.6093908971E+03
          2                 8           0            34   40     1       0.2986015294E+03      34   40    1      -0.9275474492E+07      0.9922741393E+07      0.1318036670E+08      0.6093908971E+03
          3                 8           0            34   40     1       0.2090210670E+03      34   40    1      -0.6988539733E+07      0.7677563853E+07      0.9922741393E+07      0.6093908971E+03
          4                 8           0            34   40     1       0.1463147444E+03      34   40    1      -0.5387685429E+07      0.6142944816E+07      0.7677563853E+07      0.6093908971E+03
          5                 8           0            34   40     1       0.1024203194E+03      34   40    1      -0.4267087436E+07      0.5034213947E+07      0.6142944816E+07      0.6093908971E+03
          6                 8           0            34   40     1       0.7169422233E+02      34   40    1      -0.3482668854E+07      0.4116978856E+07      0.5034213947E+07      0.6093908971E+03
          7                 8           0            34   40     1       0.5018595478E+02      34   40    1      -0.2933581589E+07      0.3561420398E+07      0.4116978856E+07      0.6093908971E+03
          8                 8           0            34   40     1       0.3513016775E+02      34   40    1      -0.2549220929E+07      0.3222370344E+07      0.3561420398E+07      0.6093908971E+03
          9                 8           0            34   40     1       0.2459111700E+02      34   40    1      -0.2280168471E+07      0.2889637139E+07      0.3222370344E+07      0.6093908971E+03
         10                 8           0            34   40     1       0.1721378161E+02      34   40    1      -0.2091831754E+07      0.2509362584E+07      0.2889637139E+07      0.6093908971E+03
                                                   Max.-Head-Change                        Max.-Flux-Residual
  Residual-Control   Outer-Iter.   Inner-Iter.     Column Row Layer    Max.-Head-Change    Column Row Layer    Max.-Flux-Residual            L2-New               L2-Old           Solver-Max-Delh
         11                 8           0            34   40     1       0.1204964692E+02      34   40    1      -0.1499166441E+07      0.1890408209E+07      0.2509362584E+07      0.6093908971E+03
         12                 8           0            34   40     1       0.8434752701E+01      34   40    1      -0.9808050878E+06      0.1414776190E+07      0.1890408209E+07      0.6093908971E+03
         13                 8           0            34   40     1       0.5904326790E+01      34   40    1      -0.6182704565E+06      0.1133531055E+07      0.1414776190E+07      0.6093908971E+03
         14                 8           0            34   40     1       0.4133028683E+01      34   40    1      -0.3646521905E+06      0.9853168011E+06      0.1133531055E+07      0.6093908971E+03
          0                 9           2            36   48     1       0.1170188139E+03      36   47    1      -0.2648409122E+06      0.9180594616E+06      0.9853168011E+06      0.1170188139E+03
          1                 9           0            36   48     1       0.8191316831E+02      36   48    1      -0.2101093358E+07      0.2102282224E+07      0.9180594616E+06      0.1170188139E+03
          2                 9           0            36   48     1       0.5733921684E+02      36   48    1      -0.1963117755E+07      0.1981318207E+07      0.2102282224E+07      0.1170188139E+03
          3                 9           0            36   48     1       0.4013745110E+02      36   48    1      -0.1866534835E+07      0.1922657679E+07      0.1981318207E+07      0.1170188139E+03
          4                 9           0            36   48     1       0.2809621529E+02      36   48    1      -0.1798928754E+07      0.1895662027E+07      0.1922657679E+07      0.1170188139E+03
          5                 9           0            36   48     1       0.1966735037E+02      36   48    1      -0.1612427790E+07      0.1755342142E+07      0.1895662027E+07      0.1170188139E+03
                                                   Max.-Head-Change                        Max.-Flux-Residual
  Residual-Control   Outer-Iter.   Inner-Iter.     Column Row Layer    Max.-Head-Change    Column Row Layer    Max.-Flux-Residual            L2-New               L2-Old           Solver-Max-Delh
          6                 9           0            36   48     1       0.1376714503E+02      36   48    1      -0.7662556351E+06      0.1079940338E+07      0.1755342142E+07      0.1170188139E+03
          0                10           2            37   75     1       0.2298300866E+01      36   47    1      -0.2352374511E+06      0.8267852993E+06      0.1079940338E+07      0.2298300866E+01
          0                11           2            37   75     1      -0.1985020690E+00      26  115    1      -0.1469548750E+05      0.6245114365E+05      0.8267852993E+06     -0.1985020690E+00
          0                12           2            63    9     1       0.1250160703E+00      26  115    1      -0.7347761767E+03      0.3122054029E+04      0.6245114365E+05      0.1250160703E+00

    ------------------------------------------------
       NWT REQUIRED           12 OUTER ITERATIONS 
       AND A TOTAL OF         24 INNER ITERATIONS.
    ------------------------------------------------

 OUTPUT CONTROL FOR STRESS PERIOD    1   TIME STEP   91
    SAVE HEAD FOR ALL LAYERS
    SAVE DRAWDOWN FOR ALL LAYERS
    SAVE BUDGET
    PRINT BUDGET
 UBDSV1 SAVING "         STORAGE" ON UNIT   9 AT TIME STEP 91, STRESS PERIOD   1
 UBDSV2 SAVING "   CONSTANT HEAD" ON UNIT   9 AT TIME STEP 91, STRESS PERIOD   1
 UBDSV1 SAVING "FLOW RIGHT FACE " ON UNIT   9 AT TIME STEP 91, STRESS PERIOD   1
 UBDSV1 SAVING "FLOW FRONT FACE " ON UNIT   9 AT TIME STEP 91, STRESS PERIOD   1
 UBDSV4 SAVING "   RIVER LEAKAGE" ON UNIT   9 AT TIME STEP 91, STRESS PERIOD   1
 UBDSV3 SAVING "        RECHARGE" ON UNIT   9 AT TIME STEP 91, STRESS PERIOD   1

 HEAD WILL BE SAVED ON UNIT   37 AT END OF TIME STEP   91, STRESS PERIOD    1

 DRAWDOWN WILL BE SAVED ON UNIT   38 AT END OF TIME STEP   91, STRESS PERIOD    1
1
  VOLUMETRIC BUDGET FOR ENTIRE MODEL AT END OF TIME STEP   91, STRESS PERIOD   1
  ------------------------------------------------------------------------------

     CUMULATIVE VOLUMES      L**3       RATES FOR THIS TIME STEP      L**3/T
     ------------------                 ------------------------

           IN:                                      IN:
           ---                                      ---
             STORAGE =    83826904.0000               STORAGE =      880137.9375
       CONSTANT HEAD =           0.0000         CONSTANT HEAD =           0.0000
       RIVER LEAKAGE =   148858896.0000         RIVER LEAKAGE =     6437664.5000
            RECHARGE =        1010.1921              RECHARGE =       1.5948E-08

            TOTAL IN =   232686816.0000              TOTAL IN =     7317802.5000

          OUT:                                     OUT:
          ----                                     ----
             STORAGE =   232307456.0000               STORAGE =     7312511.0000
       CONSTANT HEAD =           0.0000         CONSTANT HEAD =           0.0000
       RIVER LEAKAGE =      410812.7188         RIVER LEAKAGE =        6878.2041
            RECHARGE =           0.0000              RECHARGE =           0.0000

           TOTAL OUT =   232718272.0000             TOTAL OUT =     7319389.0000

            IN - OUT =      -31456.0000              IN - OUT =       -1586.5000

 PERCENT DISCREPANCY =          -0.01     PERCENT DISCREPANCY =          -0.02






         TIME SUMMARY AT END OF TIME STEP   91 IN STRESS PERIOD    1
                    SECONDS     MINUTES      HOURS       DAYS        YEARS
                    -----------------------------------------------------------
   TIME STEP LENGTH  86400.      1440.0      24.000      1.0000     2.73785E-03
 STRESS PERIOD TIME 7.86240E+06 1.31040E+05  2184.0      91.000     0.24914    
         TOTAL TIME 7.86240E+06 1.31040E+05  2184.0      91.000     0.24914    
1
 
 SOLVING FOR HEAD 
                                                   Max.-Head-Change                        Max.-Flux-Residual
  Residual-Control   Outer-Iter.   Inner-Iter.     Column Row Layer    Max.-Head-Change    Column Row Layer    Max.-Flux-Residual            L2-New               L2-Old           Solver-Max-Delh
          0                 1           2            43   37     1       0.7426522282E+02      26  115    1       0.4103545363E+06      0.1372890502E+07      0.1565633260E+03      0.7426522282E+02
          1                 1           0            43   37     1       0.5198565509E+02      43   43    1      -0.1573575360E+07      0.5494378398E+07      0.1372890502E+07      0.7426522282E+02
          2                 1           0            43   37     1       0.3638995794E+02      43   38    1      -0.1565461983E+07      0.5205347729E+07      0.5494378398E+07      0.7426522282E+02
          3                 1           0            43   37     1       0.2547297012E+02      43   38    1      -0.1563027986E+07      0.4712983981E+07      0.5205347729E+07      0.7426522282E+02
          4                 1           0            43   37     1       0.1783107878E+02      43   38    1      -0.1561324189E+07      0.4316943410E+07      0.4712983981E+07      0.7426522282E+02
          5                 1           0            43   37     1       0.1248175494E+02      43   38    1      -0.1560132982E+07      0.3758286240E+07      0.4316943410E+07      0.7426522282E+02
          6                 1           0            43   37     1       0.8737228306E+01      43   38    1      -0.1151028439E+07      0.2759305279E+07      0.3758286240E+07      0.7426522282E+02
          7                 1           0            43   37     1       0.6116059710E+01      43   38    1      -0.7758170171E+06      0.1983977097E+07      0.2759305279E+07      0.7426522282E+02
          8                 1           0            43   37     1       0.4281241724E+01      43   38    1      -0.5133361644E+06      0.1581148645E+07      0.1983977097E+07      0.7426522282E+02
          0                 2           2            42   37     1       0.7423321314E+02      26  115    1       0.3843327976E+06      0.1418471400E+07      0.1581148645E+07      0.7423321314E+02
                                                   Max.-Head-Change                        Max.-Flux-Residual
  Residual-Control   Outer-Iter.   Inner-Iter.     Column Row Layer    Max.-Head-Change    Column Row Layer    Max.-Flux-Residual            L2-New               L2-Old           Solver-Max-Delh
          1                 2           0            42   37     1       0.5196324831E+02      43   43    1      -0.1573791897E+07      0.4489429180E+07      0.1418471400E+07      0.7423321314E+02
          2                 2           0            42   37     1       0.3637427320E+02      43   43    1      -0.1572662483E+07      0.4284765692E+07      0.4489429180E+07      0.7423321314E+02
          3                 2           0            42   37     1       0.2546199081E+02      42   38    1      -0.1446447122E+07      0.3693995542E+07      0.4284765692E+07      0.7423321314E+02
          4                 2           0            42   37     1       0.1782339326E+02      42   38    1      -0.1445108510E+07      0.3265606195E+07      0.3693995542E+07      0.7423321314E+02
          5                 2           0            42   37     1       0.1247637507E+02      42   38    1      -0.1444171482E+07      0.2942563251E+07      0.3265606195E+07      0.7423321314E+02
          6                 2           0            42   37     1       0.8733462400E+01      42   37    1      -0.1236822165E+07      0.2374584872E+07      0.2942563251E+07      0.7423321314E+02
          7                 2           0            42   37     1       0.6113423576E+01      42   37    1      -0.8615795095E+06      0.1855957923E+07      0.2374584872E+07      0.7423321314E+02
          8                 2           0            42   37     1       0.4279396430E+01      42   37    1      -0.5990766073E+06      0.1585540382E+07      0.1855957923E+07      0.7423321314E+02
          0                 3           2            41   37     1       0.5545380363E+02      42   37    1      -0.4154063289E+06      0.1462227741E+07      0.1585540382E+07      0.5545380363E+02
          1                 3           0            41   37     1       0.3881766188E+02      41   36    1      -0.1396767928E+07      0.2342354604E+07      0.1462227741E+07      0.5545380363E+02
                                                   Max.-Head-Change                        Max.-Flux-Residual
  Residual-Control   Outer-Iter.   Inner-Iter.     Column Row Layer    Max.-Head-Change    Column Row Layer    Max.-Flux-Residual            L2-New               L2-Old           Solver-Max-Delh
          2                 3           0            41   37     1       0.2717236285E+02      41   36    1      -0.1395696775E+07      0.2274143079E+07      0.2342354604E+07      0.5545380363E+02
          3                 3           0            41   37     1       0.1902065367E+02      41   37    1      -0.1256741086E+07      0.1917292742E+07      0.2274143079E+07      0.5545380363E+02
          4                 3           0            41   37     1       0.1331445734E+02      41   37    1      -0.1255716069E+07      0.1759822190E+07      0.1917292742E+07      0.5545380363E+02
          5                 3           0            41   37     1       0.9320119982E+01      41   37    1      -0.1194087002E+07      0.1691493513E+07      0.1759822190E+07      0.5545380363E+02
          0                 4           2            41   37     1      -0.7520526376E+01      41   37    1      -0.7935345026E+06      0.1469830841E+07      0.1691493513E+07     -0.7520526376E+01
          0                 5           2            43   35     1      -0.6081988391E+01      43   35    1      -0.6411971155E+06      0.6521069522E+06      0.1469830841E+07     -0.6081988391E+01
          0                 6           2            41   38     1      -0.2536553089E+01      41   38    1      -0.2673490784E+06      0.2693743760E+06      0.6521069522E+06     -0.2536553089E+01
          0                 7           2            42   35     1       0.1114435736E+01      41   38    1      -0.1343185362E+05      0.1353272126E+05      0.2693743760E+06      0.1114435736E+01
          1                 7           0            42   35     1       0.7801050019E+00      32   75    1      -0.3667704043E+05      0.3668328476E+05      0.1353272126E+05      0.1114435736E+01
          0                 8           2            42   35     1       0.1114355339E+01      32   75    1      -0.7057250361E+04      0.8387913208E+04      0.3668328476E+05      0.1114355339E+01
                                                   Max.-Head-Change                        Max.-Flux-Residual
  Residual-Control   Outer-Iter.   Inner-Iter.     Column Row Layer    Max.-Head-Change    Column Row Layer    Max.-Flux-Residual            L2-New               L2-Old           Solver-Max-Delh
          1                 8           0            42   35     1       0.7800487238E+00      42   35    1      -0.5585498503E+05      0.5585656030E+05      0.8387913208E+04      0.1114355339E+01
          2                 8           0            42   35     1       0.5460340974E+00      42   35    1      -0.2240422485E+05      0.2257974844E+05      0.5585656030E+05      0.1114355339E+01
          0                 9           2            42   35     1       0.1114293221E+01      32   75    1      -0.3772100450E+04      0.4483335240E+04      0.2257974844E+05      0.1114293221E+01
          1                 9           0            42   35     1       0.7800052412E+00      42   35    1      -0.1104898223E+06      0.1104900501E+06      0.4483335240E+04      0.1114293221E+01
          2                 9           0            42   35     1       0.5460036596E+00      42   35    1      -0.7703726928E+05      0.7705190822E+05      0.1104900501E+06      0.1114293221E+01
          3                 9           0            42   35     1       0.3822025552E+00      42   35    1      -0.5362181507E+05      0.5367533324E+05      0.7705190822E+05      0.1114293221E+01
          4                 9           0            42   35     1       0.2675417841E+00      42   35    1      -0.3723165031E+05      0.3735412697E+05      0.5367533324E+05      0.1114293221E+01
          5                 9           0            42   35     1       0.1872792457E+00      42   35    1      -0.2575885510E+05      0.2599028646E+05      0.3735412697E+05      0.1114293221E+01
          6                 9           0            42   35     1       0.1310954697E+00      42   35    1      -0.1772805535E+05      0.1812395792E+05      0.2599028646E+05      0.1114293221E+01
          7                 9           0            42   35     1       0.9176682725E-01      42   35    1      -0.1210657244E+05      0.1274469596E+05      0.1812395792E+05      0.1114293221E+01
                                                   Max.-Head-Change                        Max.-Flux-Residual
  Residual-Control   Outer-Iter.   Inner-Iter.     Column Row Layer    Max.-Head-Change    Column Row Layer    Max.-Flux-Residual            L2-New               L2-Old           Solver-Max-Delh
          8                 9           0            42   35     1       0.6423677798E-01      42   35    1      -0.8171572113E+04      0.9157108927E+04      0.1274469596E+05      0.1114293221E+01
          9                 9           0            42   35     1       0.4496574382E-01      42   35    1      -0.5417090371E+04      0.6877770377E+04      0.9157108927E+04      0.1114293221E+01
         10                 9           0            42   35     1       0.3147602014E-01      32   75    1      -0.3627491981E+04      0.5546300995E+04      0.6877770377E+04      0.1114293221E+01
          0                10           2            63    9     1       0.1257399174E+00      32   75    1      -0.3670874523E+04      0.4859256954E+04      0.5546300995E+04      0.1257399174E+00

    ------------------------------------------------
       NWT REQUIRED           10 OUTER ITERATIONS 
       AND A TOTAL OF         20 INNER ITERATIONS.
    ------------------------------------------------

 OUTPUT CONTROL FOR STRESS PERIOD    1   TIME STEP   92
    SAVE HEAD FOR ALL LAYERS
    SAVE DRAWDOWN FOR ALL LAYERS
    SAVE BUDGET
    PRINT BUDGET
 UBDSV1 SAVING "         STORAGE" ON UNIT   9 AT TIME STEP 92, STRESS PERIOD   1
 UBDSV2 SAVING "   CONSTANT HEAD" ON UNIT   9 AT TIME STEP 92, STRESS PERIOD   1
 UBDSV1 SAVING "FLOW RIGHT FACE " ON UNIT   9 AT TIME STEP 92, STRESS PERIOD   1
 UBDSV1 SAVING "FLOW FRONT FACE " ON UNIT   9 AT TIME STEP 92, STRESS PERIOD   1
 UBDSV4 SAVING "   RIVER LEAKAGE" ON UNIT   9 AT TIME STEP 92, STRESS PERIOD   1
 UBDSV3 SAVING "        RECHARGE" ON UNIT   9 AT TIME STEP 92, STRESS PERIOD   1

 HEAD WILL BE SAVED ON UNIT   37 AT END OF TIME STEP   92, STRESS PERIOD    1

 DRAWDOWN WILL BE SAVED ON UNIT   38 AT END OF TIME STEP   92, STRESS PERIOD    1
1
  VOLUMETRIC BUDGET FOR ENTIRE MODEL AT END OF TIME STEP   92, STRESS PERIOD   1
  ------------------------------------------------------------------------------

     CUMULATIVE VOLUMES      L**3       RATES FOR THIS TIME STEP      L**3/T
     ------------------                 ------------------------

           IN:                                      IN:
           ---                                      ---
             STORAGE =    84705736.0000               STORAGE =      878832.9375
       CONSTANT HEAD =           0.0000         CONSTANT HEAD =           0.0000
       RIVER LEAKAGE =   162646128.0000         RIVER LEAKAGE =    13787228.0000
            RECHARGE =       46181.1562              RECHARGE =       45170.9648

            TOTAL IN =   247398048.0000              TOTAL IN =    14711232.0000

          OUT:                                     OUT:
          ----                                     ----
             STORAGE =   247011728.0000               STORAGE =    14704268.0000
       CONSTANT HEAD =           0.0000         CONSTANT HEAD =           0.0000
       RIVER LEAKAGE =      418197.0625         RIVER LEAKAGE =        7384.3452
            RECHARGE =           0.0000              RECHARGE =           0.0000

           TOTAL OUT =   247429920.0000             TOTAL OUT =    14711652.0000

            IN - OUT =      -31872.0000              IN - OUT =        -420.0000

 PERCENT DISCREPANCY =          -0.01     PERCENT DISCREPANCY =          -0.00






         TIME SUMMARY AT END OF TIME STEP   92 IN STRESS PERIOD    1
                    SECONDS     MINUTES      HOURS       DAYS        YEARS
                    -----------------------------------------------------------
   TIME STEP LENGTH  86400.      1440.0      24.000      1.0000     2.73785E-03
 STRESS PERIOD TIME 7.94880E+06 1.32480E+05  2208.0      92.000     0.25188    
         TOTAL TIME 7.94880E+06 1.32480E+05  2208.0      92.000     0.25188    
1
 
 SOLVING FOR HEAD 
                                                   Max.-Head-Change                        Max.-Flux-Residual
  Residual-Control   Outer-Iter.   Inner-Iter.     Column Row Layer    Max.-Head-Change    Column Row Layer    Max.-Flux-Residual            L2-New               L2-Old           Solver-Max-Delh
          0                 1           2            43   59     1       0.1492141010E+01      43   59    1       0.1359162591E+06      0.2783461772E+06      0.2431003718E+03      0.1492141010E+01
          0                 2           2            43   59     1      -0.1290397132E+00      43   59    1      -0.1361393190E+05      0.2784906922E+05      0.2783461772E+06     -0.1290397132E+00
          0                 3           2            63    9     1       0.1267550551E+00      43   59    1      -0.6808630689E+03      0.1392602993E+04      0.2784906922E+05      0.1267550551E+00

    ------------------------------------------------
       NWT REQUIRED            3 OUTER ITERATIONS 
       AND A TOTAL OF          6 INNER ITERATIONS.
    ------------------------------------------------

 OUTPUT CONTROL FOR STRESS PERIOD    1   TIME STEP   93
    SAVE HEAD FOR ALL LAYERS
    SAVE DRAWDOWN FOR ALL LAYERS
    SAVE BUDGET
    PRINT BUDGET
 UBDSV1 SAVING "         STORAGE" ON UNIT   9 AT TIME STEP 93, STRESS PERIOD   1
 UBDSV2 SAVING "   CONSTANT HEAD" ON UNIT   9 AT TIME STEP 93, STRESS PERIOD   1
 UBDSV1 SAVING "FLOW RIGHT FACE " ON UNIT   9 AT TIME STEP 93, STRESS PERIOD   1
 UBDSV1 SAVING "FLOW FRONT FACE " ON UNIT   9 AT TIME STEP 93, STRESS PERIOD   1
 UBDSV4 SAVING "   RIVER LEAKAGE" ON UNIT   9 AT TIME STEP 93, STRESS PERIOD   1
 UBDSV3 SAVING "        RECHARGE" ON UNIT   9 AT TIME STEP 93, STRESS PERIOD   1

 HEAD WILL BE SAVED ON UNIT   37 AT END OF TIME STEP   93, STRESS PERIOD    1

 DRAWDOWN WILL BE SAVED ON UNIT   38 AT END OF TIME STEP   93, STRESS PERIOD    1
1
  VOLUMETRIC BUDGET FOR ENTIRE MODEL AT END OF TIME STEP   93, STRESS PERIOD   1
  ------------------------------------------------------------------------------

     CUMULATIVE VOLUMES      L**3       RATES FOR THIS TIME STEP      L**3/T
     ------------------                 ------------------------

           IN:                                      IN:
           ---                                      ---
             STORAGE =    85584664.0000               STORAGE =      878928.1250
       CONSTANT HEAD =           0.0000         CONSTANT HEAD =           0.0000
       RIVER LEAKAGE =   165093968.0000         RIVER LEAKAGE =     2447834.7500
            RECHARGE =      101507.4688              RECHARGE =       55326.3125

            TOTAL IN =   250780128.0000              TOTAL IN =     3382089.0000

          OUT:                                     OUT:
          ----                                     ----
             STORAGE =   250387008.0000               STORAGE =     3375284.2500
       CONSTANT HEAD =           0.0000         CONSTANT HEAD =           0.0000
       RIVER LEAKAGE =      425598.5312         RIVER LEAKAGE =        7401.4653
            RECHARGE =           0.0000              RECHARGE =           0.0000

           TOTAL OUT =   250812608.0000             TOTAL OUT =     3382685.7500

            IN - OUT =      -32480.0000              IN - OUT =        -596.7500

 PERCENT DISCREPANCY =          -0.01     PERCENT DISCREPANCY =          -0.02






         TIME SUMMARY AT END OF TIME STEP   93 IN STRESS PERIOD    1
                    SECONDS     MINUTES      HOURS       DAYS        YEARS
                    -----------------------------------------------------------
   TIME STEP LENGTH  86400.      1440.0      24.000      1.0000     2.73785E-03
 STRESS PERIOD TIME 8.03520E+06 1.33920E+05  2232.0      93.000     0.25462    
         TOTAL TIME 8.03520E+06 1.33920E+05  2232.0      93.000     0.25462    
1
 
 SOLVING FOR HEAD 
                                                   Max.-Head-Change                        Max.-Flux-Residual
  Residual-Control   Outer-Iter.   Inner-Iter.     Column Row Layer    Max.-Head-Change    Column Row Layer    Max.-Flux-Residual            L2-New               L2-Old           Solver-Max-Delh
          0                 1           2            43   59     1       0.1986727935E+01      26  115    1       0.2586217672E+06      0.8659188123E+06      0.7044769960E+02      0.1986727935E+01
          0                 2           2            58   52     1       0.4579378449E+00      26  115    1      -0.2586307587E+05      0.8661396070E+05      0.8659188123E+06      0.4579378449E+00
          0                 3           2            58   52     1      -0.3397969773E+00      58   52    1      -0.1978817223E+05      0.2025656038E+05      0.8661396070E+05     -0.3397969773E+00
          0                 4           2            63    9     1       0.1276314805E+00      58   52    1      -0.9894081099E+03      0.1012885498E+04      0.2025656038E+05      0.1276314805E+00

    ------------------------------------------------
       NWT REQUIRED            4 OUTER ITERATIONS 
       AND A TOTAL OF          8 INNER ITERATIONS.
    ------------------------------------------------

 OUTPUT CONTROL FOR STRESS PERIOD    1   TIME STEP   94
    SAVE HEAD FOR ALL LAYERS
    SAVE DRAWDOWN FOR ALL LAYERS
    SAVE BUDGET
    PRINT BUDGET
 UBDSV1 SAVING "         STORAGE" ON UNIT   9 AT TIME STEP 94, STRESS PERIOD   1
 UBDSV2 SAVING "   CONSTANT HEAD" ON UNIT   9 AT TIME STEP 94, STRESS PERIOD   1
 UBDSV1 SAVING "FLOW RIGHT FACE " ON UNIT   9 AT TIME STEP 94, STRESS PERIOD   1
 UBDSV1 SAVING "FLOW FRONT FACE " ON UNIT   9 AT TIME STEP 94, STRESS PERIOD   1
 UBDSV4 SAVING "   RIVER LEAKAGE" ON UNIT   9 AT TIME STEP 94, STRESS PERIOD   1
 UBDSV3 SAVING "        RECHARGE" ON UNIT   9 AT TIME STEP 94, STRESS PERIOD   1

 HEAD WILL BE SAVED ON UNIT   37 AT END OF TIME STEP   94, STRESS PERIOD    1

 DRAWDOWN WILL BE SAVED ON UNIT   38 AT END OF TIME STEP   94, STRESS PERIOD    1
1
  VOLUMETRIC BUDGET FOR ENTIRE MODEL AT END OF TIME STEP   94, STRESS PERIOD   1
  ------------------------------------------------------------------------------

     CUMULATIVE VOLUMES      L**3       RATES FOR THIS TIME STEP      L**3/T
     ------------------                 ------------------------

           IN:                                      IN:
           ---                                      ---
             STORAGE =    86462208.0000               STORAGE =      877543.7500
       CONSTANT HEAD =           0.0000         CONSTANT HEAD =           0.0000
       RIVER LEAKAGE =   173753872.0000         RIVER LEAKAGE =     8659903.0000
            RECHARGE =      141197.6562              RECHARGE =       39690.1914

            TOTAL IN =   260357280.0000              TOTAL IN =     9577137.0000

          OUT:                                     OUT:
          ----                                     ----
             STORAGE =   259956704.0000               STORAGE =     9569694.0000
       CONSTANT HEAD =           0.0000         CONSTANT HEAD =           0.0000
       RIVER LEAKAGE =      433170.7188         RIVER LEAKAGE =        7572.1758
            RECHARGE =           0.0000              RECHARGE =           0.0000

           TOTAL OUT =   260389872.0000             TOTAL OUT =     9577266.0000

            IN - OUT =      -32592.0000              IN - OUT =        -129.0000

 PERCENT DISCREPANCY =          -0.01     PERCENT DISCREPANCY =          -0.00






         TIME SUMMARY AT END OF TIME STEP   94 IN STRESS PERIOD    1
                    SECONDS     MINUTES      HOURS       DAYS        YEARS
                    -----------------------------------------------------------
   TIME STEP LENGTH  86400.      1440.0      24.000      1.0000     2.73785E-03
 STRESS PERIOD TIME 8.12160E+06 1.35360E+05  2256.0      94.000     0.25736    
         TOTAL TIME 8.12160E+06 1.35360E+05  2256.0      94.000     0.25736    
1
 
 SOLVING FOR HEAD 
                                                   Max.-Head-Change                        Max.-Flux-Residual
  Residual-Control   Outer-Iter.   Inner-Iter.     Column Row Layer    Max.-Head-Change    Column Row Layer    Max.-Flux-Residual            L2-New               L2-Old           Solver-Max-Delh
          0                 1           2            43   59     1       0.1608885029E+00      14  125    1       0.4388944776E+05      0.1508675076E+06      0.5194887055E+02      0.1608885029E+00
          0                 2           2            63    9     1       0.1287490030E+00      14  125    1      -0.4388987277E+04      0.1508689337E+05      0.1508675076E+06      0.1287490030E+00
          0                 3           2            63    9     1       0.1286222466E+00      14  125    1      -0.2194495694E+03      0.7544351079E+03      0.1508689337E+05      0.1286222466E+00

    ------------------------------------------------
       NWT REQUIRED            3 OUTER ITERATIONS 
       AND A TOTAL OF          6 INNER ITERATIONS.
    ------------------------------------------------

 OUTPUT CONTROL FOR STRESS PERIOD    1   TIME STEP   95
    SAVE HEAD FOR ALL LAYERS
    SAVE DRAWDOWN FOR ALL LAYERS
    SAVE BUDGET
    PRINT BUDGET
 UBDSV1 SAVING "         STORAGE" ON UNIT   9 AT TIME STEP 95, STRESS PERIOD   1
 UBDSV2 SAVING "   CONSTANT HEAD" ON UNIT   9 AT TIME STEP 95, STRESS PERIOD   1
 UBDSV1 SAVING "FLOW RIGHT FACE " ON UNIT   9 AT TIME STEP 95, STRESS PERIOD   1
 UBDSV1 SAVING "FLOW FRONT FACE " ON UNIT   9 AT TIME STEP 95, STRESS PERIOD   1
 UBDSV4 SAVING "   RIVER LEAKAGE" ON UNIT   9 AT TIME STEP 95, STRESS PERIOD   1
 UBDSV3 SAVING "        RECHARGE" ON UNIT   9 AT TIME STEP 95, STRESS PERIOD   1

 HEAD WILL BE SAVED ON UNIT   37 AT END OF TIME STEP   95, STRESS PERIOD    1

 DRAWDOWN WILL BE SAVED ON UNIT   38 AT END OF TIME STEP   95, STRESS PERIOD    1
1
  VOLUMETRIC BUDGET FOR ENTIRE MODEL AT END OF TIME STEP   95, STRESS PERIOD   1
  ------------------------------------------------------------------------------

     CUMULATIVE VOLUMES      L**3       RATES FOR THIS TIME STEP      L**3/T
     ------------------                 ------------------------

           IN:                                      IN:
           ---                                      ---
             STORAGE =    87342016.0000               STORAGE =      879809.8125
       CONSTANT HEAD =           0.0000         CONSTANT HEAD =           0.0000
       RIVER LEAKAGE =   174793056.0000         RIVER LEAKAGE =     1039177.0625
            RECHARGE =      162072.6562              RECHARGE =       20875.0000

            TOTAL IN =   262297152.0000              TOTAL IN =     1939861.7500

          OUT:                                     OUT:
          ----                                     ----
             STORAGE =   261889216.0000               STORAGE =     1932517.8750
       CONSTANT HEAD =           0.0000         CONSTANT HEAD =           0.0000
       RIVER LEAKAGE =      440749.0625         RIVER LEAKAGE =        7578.3477
            RECHARGE =           0.0000              RECHARGE =           0.0000

           TOTAL OUT =   262329968.0000             TOTAL OUT =     1940096.2500

            IN - OUT =      -32816.0000              IN - OUT =        -234.5000

 PERCENT DISCREPANCY =          -0.01     PERCENT DISCREPANCY =          -0.01






         TIME SUMMARY AT END OF TIME STEP   95 IN STRESS PERIOD    1
                    SECONDS     MINUTES      HOURS       DAYS        YEARS
                    -----------------------------------------------------------
   TIME STEP LENGTH  86400.      1440.0      24.000      1.0000     2.73785E-03
 STRESS PERIOD TIME 8.20800E+06 1.36800E+05  2280.0      95.000     0.26010    
         TOTAL TIME 8.20800E+06 1.36800E+05  2280.0      95.000     0.26010    
1
 
 SOLVING FOR HEAD 
                                                   Max.-Head-Change                        Max.-Flux-Residual
  Residual-Control   Outer-Iter.   Inner-Iter.     Column Row Layer    Max.-Head-Change    Column Row Layer    Max.-Flux-Residual            L2-New               L2-Old           Solver-Max-Delh
          0                 1           2            63    9     1       0.1298606762E+00      14  125    1       0.4387869700E+05      0.1361362801E+06      0.3945643476E+02      0.1298606762E+00
          0                 2           2            63    9     1       0.1297301323E+00      14  125    1      -0.4387914338E+04      0.1361373012E+05      0.1361362801E+06      0.1297301323E+00
          0                 3           2            63    9     1       0.1296010719E+00      14  125    1      -0.2193959385E+03      0.6807852900E+03      0.1361373012E+05      0.1296010719E+00
          1                 3           0            63    9     1       0.9072074876E-01      33   76    1      -0.2200083135E+05      0.2200086418E+05      0.6807852900E+03      0.1296010719E+00
          2                 3           0            63    9     1       0.6350452305E-01      33   76    1      -0.9632367329E+04      0.9635074010E+04      0.2200086418E+05      0.1296010719E+00
          3                 3           0            63    9     1       0.4445316538E-01      33   76    1      -0.9744472048E+03      0.1040209481E+04      0.9635074010E+04      0.1296010719E+00

    ------------------------------------------------
       NWT REQUIRED            3 OUTER ITERATIONS 
       AND A TOTAL OF          6 INNER ITERATIONS.
    ------------------------------------------------

 OUTPUT CONTROL FOR STRESS PERIOD    1   TIME STEP   96
    SAVE HEAD FOR ALL LAYERS
    SAVE DRAWDOWN FOR ALL LAYERS
    SAVE BUDGET
    PRINT BUDGET
 UBDSV1 SAVING "         STORAGE" ON UNIT   9 AT TIME STEP 96, STRESS PERIOD   1
 UBDSV2 SAVING "   CONSTANT HEAD" ON UNIT   9 AT TIME STEP 96, STRESS PERIOD   1
 UBDSV1 SAVING "FLOW RIGHT FACE " ON UNIT   9 AT TIME STEP 96, STRESS PERIOD   1
 UBDSV1 SAVING "FLOW FRONT FACE " ON UNIT   9 AT TIME STEP 96, STRESS PERIOD   1
 UBDSV4 SAVING "   RIVER LEAKAGE" ON UNIT   9 AT TIME STEP 96, STRESS PERIOD   1
 UBDSV3 SAVING "        RECHARGE" ON UNIT   9 AT TIME STEP 96, STRESS PERIOD   1

 HEAD WILL BE SAVED ON UNIT   37 AT END OF TIME STEP   96, STRESS PERIOD    1

 DRAWDOWN WILL BE SAVED ON UNIT   38 AT END OF TIME STEP   96, STRESS PERIOD    1
1
  VOLUMETRIC BUDGET FOR ENTIRE MODEL AT END OF TIME STEP   96, STRESS PERIOD   1
  ------------------------------------------------------------------------------

     CUMULATIVE VOLUMES      L**3       RATES FOR THIS TIME STEP      L**3/T
     ------------------                 ------------------------

           IN:                                      IN:
           ---                                      ---
             STORAGE =    88231184.0000               STORAGE =      889165.8125
       CONSTANT HEAD =           0.0000         CONSTANT HEAD =           0.0000
       RIVER LEAKAGE =   175528320.0000         RIVER LEAKAGE =      735263.9375
            RECHARGE =      170680.1875              RECHARGE =        8607.5391

            TOTAL IN =   263930192.0000              TOTAL IN =     1633037.2500

          OUT:                                     OUT:
          ----                                     ----
             STORAGE =   263517120.0000               STORAGE =     1627905.6250
       CONSTANT HEAD =           0.0000         CONSTANT HEAD =           0.0000
       RIVER LEAKAGE =      448333.8125         RIVER LEAKAGE =        7584.7617
            RECHARGE =           0.0000              RECHARGE =           0.0000

           TOTAL OUT =   263965456.0000             TOTAL OUT =     1635490.3750

            IN - OUT =      -35264.0000              IN - OUT =       -2453.1250

 PERCENT DISCREPANCY =          -0.01     PERCENT DISCREPANCY =          -0.15






         TIME SUMMARY AT END OF TIME STEP   96 IN STRESS PERIOD    1
                    SECONDS     MINUTES      HOURS       DAYS        YEARS
                    -----------------------------------------------------------
   TIME STEP LENGTH  86400.      1440.0      24.000      1.0000     2.73785E-03
 STRESS PERIOD TIME 8.29440E+06 1.38240E+05  2304.0      96.000     0.26283    
         TOTAL TIME 8.29440E+06 1.38240E+05  2304.0      96.000     0.26283    
1
 
 SOLVING FOR HEAD 
                                                   Max.-Head-Change                        Max.-Flux-Residual
  Residual-Control   Outer-Iter.   Inner-Iter.     Column Row Layer    Max.-Head-Change    Column Row Layer    Max.-Flux-Residual            L2-New               L2-Old           Solver-Max-Delh
          0                 1           2            63    9     1       0.1309222290E+00      36   74    1       0.6746194242E+05      0.2701751145E+06      0.4590285450E+03      0.1309222290E+00
          0                 2           2            63    9     1       0.1307892616E+00      33   76    1      -0.3648710031E+05      0.4540114988E+05      0.2701751145E+06      0.1307892616E+00
          0                 3           2            63    9     1       0.1306577933E+00      33   76    1      -0.1824384066E+04      0.2270109826E+04      0.4540114988E+05      0.1306577933E+00

    ------------------------------------------------
       NWT REQUIRED            3 OUTER ITERATIONS 
       AND A TOTAL OF          6 INNER ITERATIONS.
    ------------------------------------------------

 OUTPUT CONTROL FOR STRESS PERIOD    1   TIME STEP   97
    SAVE HEAD FOR ALL LAYERS
    SAVE DRAWDOWN FOR ALL LAYERS
    SAVE BUDGET
    PRINT BUDGET
 UBDSV1 SAVING "         STORAGE" ON UNIT   9 AT TIME STEP 97, STRESS PERIOD   1
 UBDSV2 SAVING "   CONSTANT HEAD" ON UNIT   9 AT TIME STEP 97, STRESS PERIOD   1
 UBDSV1 SAVING "FLOW RIGHT FACE " ON UNIT   9 AT TIME STEP 97, STRESS PERIOD   1
 UBDSV1 SAVING "FLOW FRONT FACE " ON UNIT   9 AT TIME STEP 97, STRESS PERIOD   1
 UBDSV4 SAVING "   RIVER LEAKAGE" ON UNIT   9 AT TIME STEP 97, STRESS PERIOD   1
 UBDSV3 SAVING "        RECHARGE" ON UNIT   9 AT TIME STEP 97, STRESS PERIOD   1

 HEAD WILL BE SAVED ON UNIT   37 AT END OF TIME STEP   97, STRESS PERIOD    1

 DRAWDOWN WILL BE SAVED ON UNIT   38 AT END OF TIME STEP   97, STRESS PERIOD    1
1
  VOLUMETRIC BUDGET FOR ENTIRE MODEL AT END OF TIME STEP   97, STRESS PERIOD   1
  ------------------------------------------------------------------------------

     CUMULATIVE VOLUMES      L**3       RATES FOR THIS TIME STEP      L**3/T
     ------------------                 ------------------------

           IN:                                      IN:
           ---                                      ---
             STORAGE =    89106568.0000               STORAGE =      875387.8125
       CONSTANT HEAD =           0.0000         CONSTANT HEAD =           0.0000
       RIVER LEAKAGE =   177823536.0000         RIVER LEAKAGE =     2295211.7500
            RECHARGE =      173621.7500              RECHARGE =        2941.5640

            TOTAL IN =   267103712.0000              TOTAL IN =     3173541.0000

          OUT:                                     OUT:
          ----                                     ----
             STORAGE =   266683696.0000               STORAGE =     3166574.7500
       CONSTANT HEAD =           0.0000         CONSTANT HEAD =           0.0000
       RIVER LEAKAGE =      455938.4062         RIVER LEAKAGE =        7604.5928
            RECHARGE =           0.0000              RECHARGE =           0.0000

           TOTAL OUT =   267139632.0000             TOTAL OUT =     3174179.2500

            IN - OUT =      -35920.0000              IN - OUT =        -638.2500

 PERCENT DISCREPANCY =          -0.01     PERCENT DISCREPANCY =          -0.02






         TIME SUMMARY AT END OF TIME STEP   97 IN STRESS PERIOD    1
                    SECONDS     MINUTES      HOURS       DAYS        YEARS
                    -----------------------------------------------------------
   TIME STEP LENGTH  86400.      1440.0      24.000      1.0000     2.73785E-03
 STRESS PERIOD TIME 8.38080E+06 1.39680E+05  2328.0      97.000     0.26557    
         TOTAL TIME 8.38080E+06 1.39680E+05  2328.0      97.000     0.26557    
1
 
 SOLVING FOR HEAD 
                                                   Max.-Head-Change                        Max.-Flux-Residual
  Residual-Control   Outer-Iter.   Inner-Iter.     Column Row Layer    Max.-Head-Change    Column Row Layer    Max.-Flux-Residual            L2-New               L2-Old           Solver-Max-Delh
          0                 1           2            63    9     1       0.1318848544E+00      14  125    1       0.4385760249E+05      0.1369880860E+06      0.1140463237E+03      0.1318848544E+00
          0                 2           2            63    9     1       0.1317495486E+00      14  125    1      -0.4385803329E+04      0.1369890005E+05      0.1369880860E+06      0.1317495486E+00
          0                 3           2            63    9     1       0.1316157564E+00      14  125    1      -0.2192903759E+03      0.6850380638E+03      0.1369890005E+05      0.1316157564E+00

    ------------------------------------------------
       NWT REQUIRED            3 OUTER ITERATIONS 
       AND A TOTAL OF          6 INNER ITERATIONS.
    ------------------------------------------------

 OUTPUT CONTROL FOR STRESS PERIOD    1   TIME STEP   98
    SAVE HEAD FOR ALL LAYERS
    SAVE DRAWDOWN FOR ALL LAYERS
    SAVE BUDGET
    PRINT BUDGET
 UBDSV1 SAVING "         STORAGE" ON UNIT   9 AT TIME STEP 98, STRESS PERIOD   1
 UBDSV2 SAVING "   CONSTANT HEAD" ON UNIT   9 AT TIME STEP 98, STRESS PERIOD   1
 UBDSV1 SAVING "FLOW RIGHT FACE " ON UNIT   9 AT TIME STEP 98, STRESS PERIOD   1
 UBDSV1 SAVING "FLOW FRONT FACE " ON UNIT   9 AT TIME STEP 98, STRESS PERIOD   1
 UBDSV4 SAVING "   RIVER LEAKAGE" ON UNIT   9 AT TIME STEP 98, STRESS PERIOD   1
 UBDSV3 SAVING "        RECHARGE" ON UNIT   9 AT TIME STEP 98, STRESS PERIOD   1

 HEAD WILL BE SAVED ON UNIT   37 AT END OF TIME STEP   98, STRESS PERIOD    1

 DRAWDOWN WILL BE SAVED ON UNIT   38 AT END OF TIME STEP   98, STRESS PERIOD    1
1
  VOLUMETRIC BUDGET FOR ENTIRE MODEL AT END OF TIME STEP   98, STRESS PERIOD   1
  ------------------------------------------------------------------------------

     CUMULATIVE VOLUMES      L**3       RATES FOR THIS TIME STEP      L**3/T
     ------------------                 ------------------------

           IN:                                      IN:
           ---                                      ---
             STORAGE =    89989944.0000               STORAGE =      883372.1250
       CONSTANT HEAD =           0.0000         CONSTANT HEAD =           0.0000
       RIVER LEAKAGE =   178552832.0000         RIVER LEAKAGE =      729297.3750
            RECHARGE =      174518.8438              RECHARGE =         897.1007

            TOTAL IN =   268717280.0000              TOTAL IN =     1613566.6250

          OUT:                                     OUT:
          ----                                     ----
             STORAGE =   268289808.0000               STORAGE =     1606110.7500
       CONSTANT HEAD =           0.0000         CONSTANT HEAD =           0.0000
       RIVER LEAKAGE =      463549.4688         RIVER LEAKAGE =        7611.0713
            RECHARGE =           0.0000              RECHARGE =           0.0000

           TOTAL OUT =   268753344.0000             TOTAL OUT =     1613721.8750

            IN - OUT =      -36064.0000              IN - OUT =        -155.2500

 PERCENT DISCREPANCY =          -0.01     PERCENT DISCREPANCY =          -0.01






         TIME SUMMARY AT END OF TIME STEP   98 IN STRESS PERIOD    1
                    SECONDS     MINUTES      HOURS       DAYS        YEARS
                    -----------------------------------------------------------
   TIME STEP LENGTH  86400.      1440.0      24.000      1.0000     2.73785E-03
 STRESS PERIOD TIME 8.46720E+06 1.41120E+05  2352.0      98.000     0.26831    
         TOTAL TIME 8.46720E+06 1.41120E+05  2352.0      98.000     0.26831    
1
 
 SOLVING FOR HEAD 
                                                   Max.-Head-Change                        Max.-Flux-Residual
  Residual-Control   Outer-Iter.   Inner-Iter.     Column Row Layer    Max.-Head-Change    Column Row Layer    Max.-Flux-Residual            L2-New               L2-Old           Solver-Max-Delh
          0                 1           2            63    9     1       0.1328366831E+00      14  125    1       0.4384671400E+05      0.1313758604E+06      0.3603917227E+02      0.1328366831E+00
          0                 2           2            63    9     1       0.1326990305E+00      14  125    1      -0.4384716383E+04      0.1313768031E+05      0.1313758604E+06      0.1326990305E+00
          0                 3           2            63    9     1       0.1325629059E+00      14  125    1      -0.2192360435E+03      0.6569793668E+03      0.1313768031E+05      0.1325629059E+00

    ------------------------------------------------
       NWT REQUIRED            3 OUTER ITERATIONS 
       AND A TOTAL OF          6 INNER ITERATIONS.
    ------------------------------------------------

 OUTPUT CONTROL FOR STRESS PERIOD    1   TIME STEP   99
    SAVE HEAD FOR ALL LAYERS
    SAVE DRAWDOWN FOR ALL LAYERS
    SAVE BUDGET
    PRINT BUDGET
 UBDSV1 SAVING "         STORAGE" ON UNIT   9 AT TIME STEP 99, STRESS PERIOD   1
 UBDSV2 SAVING "   CONSTANT HEAD" ON UNIT   9 AT TIME STEP 99, STRESS PERIOD   1
 UBDSV1 SAVING "FLOW RIGHT FACE " ON UNIT   9 AT TIME STEP 99, STRESS PERIOD   1
 UBDSV1 SAVING "FLOW FRONT FACE " ON UNIT   9 AT TIME STEP 99, STRESS PERIOD   1
 UBDSV4 SAVING "   RIVER LEAKAGE" ON UNIT   9 AT TIME STEP 99, STRESS PERIOD   1
 UBDSV3 SAVING "        RECHARGE" ON UNIT   9 AT TIME STEP 99, STRESS PERIOD   1

 HEAD WILL BE SAVED ON UNIT   37 AT END OF TIME STEP   99, STRESS PERIOD    1

 DRAWDOWN WILL BE SAVED ON UNIT   38 AT END OF TIME STEP   99, STRESS PERIOD    1
1
  VOLUMETRIC BUDGET FOR ENTIRE MODEL AT END OF TIME STEP   99, STRESS PERIOD   1
  ------------------------------------------------------------------------------

     CUMULATIVE VOLUMES      L**3       RATES FOR THIS TIME STEP      L**3/T
     ------------------                 ------------------------

           IN:                                      IN:
           ---                                      ---
             STORAGE =    90877432.0000               STORAGE =      887485.6875
       CONSTANT HEAD =           0.0000         CONSTANT HEAD =           0.0000
       RIVER LEAKAGE =   179163120.0000         RIVER LEAKAGE =      610285.3750
            RECHARGE =      174771.1250              RECHARGE =         252.2851

            TOTAL IN =   270215328.0000              TOTAL IN =     1498023.3750

          OUT:                                     OUT:
          ----                                     ----
             STORAGE =   269780352.0000               STORAGE =     1490532.1250
       CONSTANT HEAD =           0.0000         CONSTANT HEAD =           0.0000
       RIVER LEAKAGE =      471166.0000         RIVER LEAKAGE =        7616.5195
            RECHARGE =           0.0000              RECHARGE =           0.0000

           TOTAL OUT =   270251520.0000             TOTAL OUT =     1498148.6250

            IN - OUT =      -36192.0000              IN - OUT =        -125.2500

 PERCENT DISCREPANCY =          -0.01     PERCENT DISCREPANCY =          -0.01






         TIME SUMMARY AT END OF TIME STEP   99 IN STRESS PERIOD    1
                    SECONDS     MINUTES      HOURS       DAYS        YEARS
                    -----------------------------------------------------------
   TIME STEP LENGTH  86400.      1440.0      24.000      1.0000     2.73785E-03
 STRESS PERIOD TIME 8.55360E+06 1.42560E+05  2376.0      99.000     0.27105    
         TOTAL TIME 8.55360E+06 1.42560E+05  2376.0      99.000     0.27105    
1
 
 SOLVING FOR HEAD 
                                                   Max.-Head-Change                        Max.-Flux-Residual
  Residual-Control   Outer-Iter.   Inner-Iter.     Column Row Layer    Max.-Head-Change    Column Row Layer    Max.-Flux-Residual            L2-New               L2-Old           Solver-Max-Delh
          0                 1           2            63    9     1       0.1337776645E+00      14  125    1       0.4383563686E+05      0.1312611152E+06      0.3467734917E+02      0.1337776645E+00
          0                 2           2            63    9     1       0.1336376570E+00      14  125    1      -0.4383608643E+04      0.1312620565E+05      0.1312611152E+06      0.1336376570E+00
          0                 3           2            63    9     1       0.1334991918E+00      14  125    1      -0.2191806558E+03      0.6564040531E+03      0.1312620565E+05      0.1334991918E+00

    ------------------------------------------------
       NWT REQUIRED            3 OUTER ITERATIONS 
       AND A TOTAL OF          6 INNER ITERATIONS.
    ------------------------------------------------

 OUTPUT CONTROL FOR STRESS PERIOD    1   TIME STEP  100
    SAVE HEAD FOR ALL LAYERS
    SAVE DRAWDOWN FOR ALL LAYERS
    SAVE BUDGET
    PRINT BUDGET
 UBDSV1 SAVING "         STORAGE" ON UNIT   9 AT TIME STEP100, STRESS PERIOD   1
 UBDSV2 SAVING "   CONSTANT HEAD" ON UNIT   9 AT TIME STEP100, STRESS PERIOD   1
 UBDSV1 SAVING "FLOW RIGHT FACE " ON UNIT   9 AT TIME STEP100, STRESS PERIOD   1
 UBDSV1 SAVING "FLOW FRONT FACE " ON UNIT   9 AT TIME STEP100, STRESS PERIOD   1
 UBDSV4 SAVING "   RIVER LEAKAGE" ON UNIT   9 AT TIME STEP100, STRESS PERIOD   1
 UBDSV3 SAVING "        RECHARGE" ON UNIT   9 AT TIME STEP100, STRESS PERIOD   1

 HEAD WILL BE SAVED ON UNIT   37 AT END OF TIME STEP  100, STRESS PERIOD    1

 DRAWDOWN WILL BE SAVED ON UNIT   38 AT END OF TIME STEP  100, STRESS PERIOD    1
1
  VOLUMETRIC BUDGET FOR ENTIRE MODEL AT END OF TIME STEP  100, STRESS PERIOD   1
  ------------------------------------------------------------------------------

     CUMULATIVE VOLUMES      L**3       RATES FOR THIS TIME STEP      L**3/T
     ------------------                 ------------------------

           IN:                                      IN:
           ---                                      ---
             STORAGE =    91764480.0000               STORAGE =      887046.8750
       CONSTANT HEAD =           0.0000         CONSTANT HEAD =           0.0000
       RIVER LEAKAGE =   179771552.0000         RIVER LEAKAGE =      608432.2500
            RECHARGE =      174837.5312              RECHARGE =          66.4049

            TOTAL IN =   271710848.0000              TOTAL IN =     1495545.5000

          OUT:                                     OUT:
          ----                                     ----
             STORAGE =   271268416.0000               STORAGE =     1488048.5000
       CONSTANT HEAD =           0.0000         CONSTANT HEAD =           0.0000
       RIVER LEAKAGE =      478787.8750         RIVER LEAKAGE =        7621.8774
            RECHARGE =           0.0000              RECHARGE =           0.0000

           TOTAL OUT =   271747200.0000             TOTAL OUT =     1495670.3750

            IN - OUT =      -36352.0000              IN - OUT =        -124.8750

 PERCENT DISCREPANCY =          -0.01     PERCENT DISCREPANCY =          -0.01






         TIME SUMMARY AT END OF TIME STEP  100 IN STRESS PERIOD    1
                    SECONDS     MINUTES      HOURS       DAYS        YEARS
                    -----------------------------------------------------------
   TIME STEP LENGTH  86400.      1440.0      24.000      1.0000     2.73785E-03
 STRESS PERIOD TIME 8.64000E+06 1.44000E+05  2400.0      100.00     0.27379    
         TOTAL TIME 8.64000E+06 1.44000E+05  2400.0      100.00     0.27379    
1
 
 SOLVING FOR HEAD 
                                                   Max.-Head-Change                        Max.-Flux-Residual
  Residual-Control   Outer-Iter.   Inner-Iter.     Column Row Layer    Max.-Head-Change    Column Row Layer    Max.-Flux-Residual            L2-New               L2-Old           Solver-Max-Delh
          0                 1           2            63    9     1       0.1347077395E+00      14  125    1       0.4382452751E+05      0.1317991502E+06      0.3461885511E+02      0.1347077395E+00
          0                 2           2            38   71     1       0.8425713939E+01      14  125    1      -0.4382497564E+04      0.1328705088E+05      0.1317991502E+06      0.8425713939E+01
          1                 2           0            38   71     1       0.5897999657E+01      38   71    1      -0.1376528416E+07      0.1376528573E+07      0.1328705088E+05      0.8425713939E+01
          2                 2           0            38   71     1       0.4128599690E+01      38   71    1      -0.9590891031E+06      0.9590992615E+06      0.1376528573E+07      0.8425713939E+01
          3                 2           0            38   71     1       0.2890019733E+01      38   71    1      -0.6668815893E+06      0.6669187796E+06      0.9590992615E+06      0.8425713939E+01
          4                 2           0            38   71     1       0.2023013779E+01      38   71    1      -0.4623363330E+06      0.4624216647E+06      0.6669187796E+06      0.8425713939E+01
          5                 2           0            38   71     1       0.1416109621E+01      38   71    1      -0.3191546627E+06      0.3193166986E+06      0.4624216647E+06      0.8425713939E+01
          6                 2           0            38   71     1       0.9912767179E+00      38   71    1      -0.2189275207E+06      0.2192073676E+06      0.3193166986E+06      0.8425713939E+01
          7                 2           0            38   71     1       0.6938936907E+00      38   71    1      -0.1487685226E+06      0.1492282152E+06      0.2192073676E+06      0.8425713939E+01
          8                 2           0            38   71     1       0.4857255752E+00      38   71    1      -0.9965722471E+05      0.1003946552E+06      0.1492282152E+06      0.8425713939E+01
                                                   Max.-Head-Change                        Max.-Flux-Residual
  Residual-Control   Outer-Iter.   Inner-Iter.     Column Row Layer    Max.-Head-Change    Column Row Layer    Max.-Flux-Residual            L2-New               L2-Old           Solver-Max-Delh
          9                 2           0            38   71     1       0.3400078969E+00      38   71    1      -0.6527931679E+05      0.6645691883E+05      0.1003946552E+06      0.8425713939E+01
         10                 2           0            38   71     1       0.2380055238E+00      38   71    1      -0.4121478165E+05      0.4311879944E+05      0.6645691883E+05      0.8425713939E+01
         11                 2           0            38   71     1       0.1666038638E+00      38   71    1      -0.2436960734E+05      0.2753750206E+05      0.4311879944E+05      0.8425713939E+01
         12                 2           0            38   71     1       0.1166227027E+00      38   71    1      -0.1257798552E+05      0.1803812184E+05      0.2753750206E+05      0.8425713939E+01
          0                 3           2            63    9     1       0.1345634204E+00      14  125    1      -0.4324871137E+04      0.1370363078E+05      0.1803812184E+05      0.1345634204E+00
          0                 4           2            63    9     1       0.1344226074E+00      14  125    1      -0.2162005238E+03      0.6851464121E+03      0.1370363078E+05      0.1344226074E+00

    ------------------------------------------------
       NWT REQUIRED            4 OUTER ITERATIONS 
       AND A TOTAL OF          8 INNER ITERATIONS.
    ------------------------------------------------

 OUTPUT CONTROL FOR STRESS PERIOD    1   TIME STEP  101
    SAVE HEAD FOR ALL LAYERS
    SAVE DRAWDOWN FOR ALL LAYERS
    SAVE BUDGET
    PRINT BUDGET
 UBDSV1 SAVING "         STORAGE" ON UNIT   9 AT TIME STEP101, STRESS PERIOD   1
 UBDSV2 SAVING "   CONSTANT HEAD" ON UNIT   9 AT TIME STEP101, STRESS PERIOD   1
 UBDSV1 SAVING "FLOW RIGHT FACE " ON UNIT   9 AT TIME STEP101, STRESS PERIOD   1
 UBDSV1 SAVING "FLOW FRONT FACE " ON UNIT   9 AT TIME STEP101, STRESS PERIOD   1
 UBDSV4 SAVING "   RIVER LEAKAGE" ON UNIT   9 AT TIME STEP101, STRESS PERIOD   1
 UBDSV3 SAVING "        RECHARGE" ON UNIT   9 AT TIME STEP101, STRESS PERIOD   1

 HEAD WILL BE SAVED ON UNIT   37 AT END OF TIME STEP  101, STRESS PERIOD    1

 DRAWDOWN WILL BE SAVED ON UNIT   38 AT END OF TIME STEP  101, STRESS PERIOD    1
1
  VOLUMETRIC BUDGET FOR ENTIRE MODEL AT END OF TIME STEP  101, STRESS PERIOD   1
  ------------------------------------------------------------------------------

     CUMULATIVE VOLUMES      L**3       RATES FOR THIS TIME STEP      L**3/T
     ------------------                 ------------------------

           IN:                                      IN:
           ---                                      ---
             STORAGE =    92650216.0000               STORAGE =      885733.6250
       CONSTANT HEAD =           0.0000         CONSTANT HEAD =           0.0000
       RIVER LEAKAGE =   180394240.0000         RIVER LEAKAGE =      622686.1875
            RECHARGE =      174854.1719              RECHARGE =          16.6419

            TOTAL IN =   273219296.0000              TOTAL IN =     1508436.5000

          OUT:                                     OUT:
          ----                                     ----
             STORAGE =   272769376.0000               STORAGE =     1500946.0000
       CONSTANT HEAD =           0.0000         CONSTANT HEAD =           0.0000
       RIVER LEAKAGE =      486415.2812         RIVER LEAKAGE =        7627.4214
            RECHARGE =           0.0000              RECHARGE =           0.0000

           TOTAL OUT =   273255776.0000             TOTAL OUT =     1508573.3750

            IN - OUT =      -36480.0000              IN - OUT =        -136.8750

 PERCENT DISCREPANCY =          -0.01     PERCENT DISCREPANCY =          -0.01






         TIME SUMMARY AT END OF TIME STEP  101 IN STRESS PERIOD    1
                    SECONDS     MINUTES      HOURS       DAYS        YEARS
                    -----------------------------------------------------------
   TIME STEP LENGTH  86400.      1440.0      24.000      1.0000     2.73785E-03
 STRESS PERIOD TIME 8.72640E+06 1.45440E+05  2424.0      101.00     0.27652    
         TOTAL TIME 8.72640E+06 1.45440E+05  2424.0      101.00     0.27652    
1
 
 SOLVING FOR HEAD 
                                                   Max.-Head-Change                        Max.-Flux-Residual
  Residual-Control   Outer-Iter.   Inner-Iter.     Column Row Layer    Max.-Head-Change    Column Row Layer    Max.-Flux-Residual            L2-New               L2-Old           Solver-Max-Delh
          0                 1           2            63    9     1       0.1356249132E+00      14  125    1       0.4381339596E+05      0.1310947358E+06      0.3594902083E+02      0.1356249132E+00
          0                 2           2            63    9     1       0.1354801754E+00      14  125    1      -0.4381384522E+04      0.1310956728E+05      0.1310947358E+06      0.1354801754E+00
          0                 3           2            63    9     1       0.1353370084E+00      14  125    1      -0.2190694497E+03      0.6555690511E+03      0.1310956728E+05      0.1353370084E+00

    ------------------------------------------------
       NWT REQUIRED            3 OUTER ITERATIONS 
       AND A TOTAL OF          6 INNER ITERATIONS.
    ------------------------------------------------

 OUTPUT CONTROL FOR STRESS PERIOD    1   TIME STEP  102
    SAVE HEAD FOR ALL LAYERS
    SAVE DRAWDOWN FOR ALL LAYERS
    SAVE BUDGET
    PRINT BUDGET
 UBDSV1 SAVING "         STORAGE" ON UNIT   9 AT TIME STEP102, STRESS PERIOD   1
 UBDSV2 SAVING "   CONSTANT HEAD" ON UNIT   9 AT TIME STEP102, STRESS PERIOD   1
 UBDSV1 SAVING "FLOW RIGHT FACE " ON UNIT   9 AT TIME STEP102, STRESS PERIOD   1
 UBDSV1 SAVING "FLOW FRONT FACE " ON UNIT   9 AT TIME STEP102, STRESS PERIOD   1
 UBDSV4 SAVING "   RIVER LEAKAGE" ON UNIT   9 AT TIME STEP102, STRESS PERIOD   1
 UBDSV3 SAVING "        RECHARGE" ON UNIT   9 AT TIME STEP102, STRESS PERIOD   1

 HEAD WILL BE SAVED ON UNIT   37 AT END OF TIME STEP  102, STRESS PERIOD    1

 DRAWDOWN WILL BE SAVED ON UNIT   38 AT END OF TIME STEP  102, STRESS PERIOD    1
1
  VOLUMETRIC BUDGET FOR ENTIRE MODEL AT END OF TIME STEP  102, STRESS PERIOD   1
  ------------------------------------------------------------------------------

     CUMULATIVE VOLUMES      L**3       RATES FOR THIS TIME STEP      L**3/T
     ------------------                 ------------------------

           IN:                                      IN:
           ---                                      ---
             STORAGE =    93536248.0000               STORAGE =      886033.0625
       CONSTANT HEAD =           0.0000         CONSTANT HEAD =           0.0000
       RIVER LEAKAGE =   180998032.0000         RIVER LEAKAGE =      603788.8750
            RECHARGE =      174858.1875              RECHARGE =           4.0161

            TOTAL IN =   274709152.0000              TOTAL IN =     1489826.0000

          OUT:                                     OUT:
          ----                                     ----
             STORAGE =   274251648.0000               STORAGE =     1482282.5000
       CONSTANT HEAD =           0.0000         CONSTANT HEAD =           0.0000
       RIVER LEAKAGE =      494082.6875         RIVER LEAKAGE =        7667.4185
            RECHARGE =           0.0000              RECHARGE =           0.0000

           TOTAL OUT =   274745728.0000             TOTAL OUT =     1489949.8750

            IN - OUT =      -36576.0000              IN - OUT =        -123.8750

 PERCENT DISCREPANCY =          -0.01     PERCENT DISCREPANCY =          -0.01






         TIME SUMMARY AT END OF TIME STEP  102 IN STRESS PERIOD    1
                    SECONDS     MINUTES      HOURS       DAYS        YEARS
                    -----------------------------------------------------------
   TIME STEP LENGTH  86400.      1440.0      24.000      1.0000     2.73785E-03
 STRESS PERIOD TIME 8.81280E+06 1.46880E+05  2448.0      102.00     0.27926    
         TOTAL TIME 8.81280E+06 1.46880E+05  2448.0      102.00     0.27926    
1
 
 SOLVING FOR HEAD 
                                                   Max.-Head-Change                        Max.-Flux-Residual
  Residual-Control   Outer-Iter.   Inner-Iter.     Column Row Layer    Max.-Head-Change    Column Row Layer    Max.-Flux-Residual            L2-New               L2-Old           Solver-Max-Delh
          0                 1           2            43   59     1       0.1571167629E+00      14  125    1       0.4380222057E+05      0.1464580443E+06      0.3451907798E+02      0.1571167629E+00
          0                 2           2            63   15     1       0.1364359709E+00      62   17    1      -0.9369388556E+04      0.1738646163E+05      0.1464580443E+06      0.1364359709E+00
          0                 3           2            63   15     1       0.1363469817E+00      62   17    1      -0.4685484140E+03      0.8694331542E+03      0.1738646163E+05      0.1363469817E+00

    ------------------------------------------------
       NWT REQUIRED            3 OUTER ITERATIONS 
       AND A TOTAL OF          6 INNER ITERATIONS.
    ------------------------------------------------

 OUTPUT CONTROL FOR STRESS PERIOD    1   TIME STEP  103
    SAVE HEAD FOR ALL LAYERS
    SAVE DRAWDOWN FOR ALL LAYERS
    SAVE BUDGET
    PRINT BUDGET
 UBDSV1 SAVING "         STORAGE" ON UNIT   9 AT TIME STEP103, STRESS PERIOD   1
 UBDSV2 SAVING "   CONSTANT HEAD" ON UNIT   9 AT TIME STEP103, STRESS PERIOD   1
 UBDSV1 SAVING "FLOW RIGHT FACE " ON UNIT   9 AT TIME STEP103, STRESS PERIOD   1
 UBDSV1 SAVING "FLOW FRONT FACE " ON UNIT   9 AT TIME STEP103, STRESS PERIOD   1
 UBDSV4 SAVING "   RIVER LEAKAGE" ON UNIT   9 AT TIME STEP103, STRESS PERIOD   1
 UBDSV3 SAVING "        RECHARGE" ON UNIT   9 AT TIME STEP103, STRESS PERIOD   1

 HEAD WILL BE SAVED ON UNIT   37 AT END OF TIME STEP  103, STRESS PERIOD    1

 DRAWDOWN WILL BE SAVED ON UNIT   38 AT END OF TIME STEP  103, STRESS PERIOD    1
1
  VOLUMETRIC BUDGET FOR ENTIRE MODEL AT END OF TIME STEP  103, STRESS PERIOD   1
  ------------------------------------------------------------------------------

     CUMULATIVE VOLUMES      L**3       RATES FOR THIS TIME STEP      L**3/T
     ------------------                 ------------------------

           IN:                                      IN:
           ---                                      ---
             STORAGE =    94412240.0000               STORAGE =      875988.6250
       CONSTANT HEAD =           0.0000         CONSTANT HEAD =           0.0000
       RIVER LEAKAGE =   181990160.0000         RIVER LEAKAGE =      992135.0000
            RECHARGE =      174859.1250              RECHARGE =           0.9414

            TOTAL IN =   276577280.0000              TOTAL IN =     1868124.5000

          OUT:                                     OUT:
          ----                                     ----
             STORAGE =   276112352.0000               STORAGE =     1860698.6250
       CONSTANT HEAD =           0.0000         CONSTANT HEAD =           0.0000
       RIVER LEAKAGE =      501754.9688         RIVER LEAKAGE =        7672.2710
            RECHARGE =           0.0000              RECHARGE =           0.0000

           TOTAL OUT =   276614112.0000             TOTAL OUT =     1868370.8750

            IN - OUT =      -36832.0000              IN - OUT =        -246.3750

 PERCENT DISCREPANCY =          -0.01     PERCENT DISCREPANCY =          -0.01






         TIME SUMMARY AT END OF TIME STEP  103 IN STRESS PERIOD    1
                    SECONDS     MINUTES      HOURS       DAYS        YEARS
                    -----------------------------------------------------------
   TIME STEP LENGTH  86400.      1440.0      24.000      1.0000     2.73785E-03
 STRESS PERIOD TIME 8.89920E+06 1.48320E+05  2472.0      103.00     0.28200    
         TOTAL TIME 8.89920E+06 1.48320E+05  2472.0      103.00     0.28200    
1
 
 SOLVING FOR HEAD 
                                                   Max.-Head-Change                        Max.-Flux-Residual
  Residual-Control   Outer-Iter.   Inner-Iter.     Column Row Layer    Max.-Head-Change    Column Row Layer    Max.-Flux-Residual            L2-New               L2-Old           Solver-Max-Delh
          0                 1           2            43   59     1       0.4700925873E+01      36   74    1       0.5326319392E+06      0.1785474106E+07      0.4477167386E+02      0.4700925873E+01
          0                 2           2            39   70     1      -0.4655776807E+02      36   74    1      -0.5326725210E+05      0.1780250316E+06      0.1785474106E+07     -0.4655776807E+02
          1                 2           0            39   70     1      -0.3259043710E+02      39   70    1       0.3012866034E+07      0.3012879093E+07      0.1780250316E+06     -0.4655776807E+02
          0                 3           2            39   70     1       0.2311274312E+06      39   70    1       0.3012855561E+07      0.3013441651E+07      0.3012879093E+07      0.2311274312E+06
          1                 3           0            39   70     1       0.1617891991E+06      39   70    1      -0.3345397140E+11      0.3345397140E+11      0.3013441651E+07      0.2311274312E+06
          2                 3           0            39   70     1       0.1132524374E+06      39   70    1      -0.2341636707E+11      0.2341636707E+11      0.3345397140E+11      0.2311274312E+06
          3                 3           0            39   70     1       0.7927670484E+05      39   70    1      -0.1639004417E+11      0.1639004417E+11      0.2341636707E+11      0.2311274312E+06
          4                 3           0            39   70     1       0.5549369245E+05      39   70    1      -0.1147161822E+11      0.1147161822E+11      0.1639004417E+11      0.2311274312E+06
          5                 3           0            39   70     1       0.3884558405E+05      39   70    1      -0.8028720110E+10      0.8028720110E+10      0.1147161822E+11      0.2311274312E+06
          6                 3           0            39   70     1       0.2719190837E+05      39   70    1      -0.5618691476E+10      0.5618691476E+10      0.8028720110E+10      0.2311274312E+06
                                                   Max.-Head-Change                        Max.-Flux-Residual
  Residual-Control   Outer-Iter.   Inner-Iter.     Column Row Layer    Max.-Head-Change    Column Row Layer    Max.-Flux-Residual            L2-New               L2-Old           Solver-Max-Delh
          7                 3           0            39   70     1       0.1903433554E+05      39   70    1      -0.3931671461E+10      0.3931671461E+10      0.5618691476E+10      0.2311274312E+06
          8                 3           0            39   70     1       0.1332403465E+05      39   70    1      -0.2750757470E+10      0.2750757471E+10      0.3931671461E+10      0.2311274312E+06
          9                 3           0            39   70     1       0.9326824095E+04      39   70    1      -0.1924117691E+10      0.1924117692E+10      0.2750757471E+10      0.2311274312E+06
         10                 3           0            39   70     1       0.6528776755E+04      39   70    1      -0.1345469856E+10      0.1345469857E+10      0.1924117692E+10      0.2311274312E+06
         11                 3           0            39   70     1       0.4570143651E+04      39   70    1      -0.9404163777E+09      0.9404163795E+09      0.1345469857E+10      0.2311274312E+06
         12                 3           0            39   70     1       0.3199100501E+04      39   70    1      -0.6568789479E+09      0.6568789505E+09      0.9404163795E+09      0.2311274312E+06
         13                 3           0            39   70     1       0.2239370313E+04      39   70    1      -0.4584027505E+09      0.4584027542E+09      0.6568789505E+09      0.2311274312E+06
         14                 3           0            39   70     1       0.1567559192E+04      39   70    1      -0.3194694146E+09      0.3194694200E+09      0.4584027542E+09      0.2311274312E+06
         15                 3           0            39   70     1       0.1097291416E+04      39   70    1      -0.2222160812E+09      0.2222160890E+09      0.3194694200E+09      0.2311274312E+06
         16                 3           0            39   70     1       0.7681039780E+03      39   70    1      -0.1541387489E+09      0.1541387603E+09      0.2222160890E+09      0.2311274312E+06
                                                   Max.-Head-Change                        Max.-Flux-Residual
  Residual-Control   Outer-Iter.   Inner-Iter.     Column Row Layer    Max.-Head-Change    Column Row Layer    Max.-Flux-Residual            L2-New               L2-Old           Solver-Max-Delh
         17                 3           0            39   70     1       0.5376727755E+03      39   70    1      -0.1064846171E+09      0.1064846336E+09      0.1541387603E+09      0.2311274312E+06
         18                 3           0            39   70     1       0.3763709364E+03      39   70    1      -0.7312672547E+08      0.7312674952E+08      0.1064846336E+09      0.2311274312E+06
         19                 3           0            39   70     1       0.2634596510E+03      39   70    1      -0.4977620171E+08      0.4977623707E+08      0.7312674952E+08      0.2311274312E+06
         20                 3           0            39   70     1       0.1844217526E+03      39   70    1      -0.3343083535E+08      0.3343088806E+08      0.4977623707E+08      0.2311274312E+06
         21                 3           0            39   70     1       0.1290952246E+03      39   70    1      -0.2198908794E+08      0.2198916813E+08      0.3343088806E+08      0.2311274312E+06
         22                 3           0            39   70     1       0.9036665568E+02      39   70    1      -0.1397986741E+08      0.1397999360E+08      0.2198916813E+08      0.2311274312E+06
         23                 3           0            39   70     1       0.6325665790E+02      39   70    1      -0.8373416579E+07      0.8373627323E+07      0.1397999360E+08      0.2311274312E+06
         24                 3           0            39   70     1       0.4427965977E+02      39   70    1      -0.4448901466E+07      0.4449298189E+07      0.8373627323E+07      0.2311274312E+06
          0                 4           2            39   70     1      -0.8394816298E+01      39   70    1      -0.1701740934E+07      0.1702777989E+07      0.4449298189E+07     -0.8394816298E+01
          0                 5           2            39   70     1      -0.2399901278E+01      39   70    1      -0.4864851002E+06      0.4865002513E+06      0.1702777989E+07     -0.2399901278E+01
                                                   Max.-Head-Change                        Max.-Flux-Residual
  Residual-Control   Outer-Iter.   Inner-Iter.     Column Row Layer    Max.-Head-Change    Column Row Layer    Max.-Flux-Residual            L2-New               L2-Old           Solver-Max-Delh
          0                 6           2            39   70     1      -0.6860572589E+00      39   70    1      -0.1390690374E+06      0.1390692269E+06      0.4865002513E+06     -0.6860572589E+00
          0                 7           2            39   70     1      -0.1961158169E+00      39   70    1      -0.3975357892E+05      0.3975359882E+05      0.1390692269E+06     -0.1961158169E+00
          0                 8           2            39   70     1      -0.3500879745E+02      39   70    1      -0.1487868326E+05      0.1487869246E+05      0.3975359882E+05     -0.3500879745E+02
          1                 8           0            39   70     1      -0.2450615779E+02      39   70    1       0.3012857339E+07      0.3012858125E+07      0.1487869246E+05     -0.3500879745E+02
          2                 8           0            39   70     1      -0.1715431016E+02      39   70    1       0.2430199046E+07      0.2430199046E+07      0.3012858125E+07     -0.3500879745E+02
          3                 8           0            39   70     1      -0.1200801691E+02      39   70    1       0.1695661622E+07      0.1695661622E+07      0.2430199046E+07     -0.3500879745E+02
          4                 8           0            39   70     1      -0.8405611694E+01      39   70    1       0.1180842415E+07      0.1180842415E+07      0.1695661622E+07     -0.3500879745E+02
          5                 8           0            39   70     1      -0.5883928086E+01      39   70    1       0.8201536202E+06      0.8201536203E+06      0.1180842415E+07     -0.3500879745E+02
          6                 8           0            39   70     1      -0.4118749590E+01      39   70    1       0.5675168819E+06      0.5675168821E+06      0.8201536203E+06     -0.3500879745E+02
          7                 8           0            39   70     1      -0.2883124664E+01      39   70    1       0.3905954210E+06      0.3905954213E+06      0.5675168821E+06     -0.3500879745E+02
                                                   Max.-Head-Change                        Max.-Flux-Residual
  Residual-Control   Outer-Iter.   Inner-Iter.     Column Row Layer    Max.-Head-Change    Column Row Layer    Max.-Flux-Residual            L2-New               L2-Old           Solver-Max-Delh
          8                 8           0            39   70     1      -0.2018187230E+01      39   70    1       0.2667132843E+06      0.2667132848E+06      0.3905954213E+06     -0.3500879745E+02
          9                 8           0            39   70     1      -0.1412731037E+01      39   70    1       0.1799776032E+06      0.1799776039E+06      0.2667132848E+06     -0.3500879745E+02
         10                 8           0            39   70     1      -0.9889117092E+00      39   70    1       0.1192537158E+06      0.1192537170E+06      0.1799776039E+06     -0.3500879745E+02
         11                 8           0            39   70     1      -0.6922381846E+00      39   70    1       0.7674262877E+05      0.7674263053E+05      0.1192537170E+06     -0.3500879745E+02
         12                 8           0            39   70     1      -0.4845667210E+00      39   70    1       0.4698272866E+05      0.4698273154E+05      0.7674263053E+05     -0.3500879745E+02
         13                 8           0            39   70     1      -0.3391966989E+00      39   70    1       0.2614975049E+05      0.2614975568E+05      0.4698273154E+05     -0.3500879745E+02
          0                 9           2            63   15     1       0.1370700276E+00      39   70    1       0.1156615229E+05      0.1156616406E+05      0.2614975568E+05      0.1370700276E+00
          0                10           2            63    9     1       0.1364377255E+00      39   70    1       0.4371487835E+04      0.4943886291E+04      0.1156616406E+05      0.1364377255E+00
          0                11           2            63    9     1       0.1362906365E+00      39   70    1       0.1652195113E+04      0.1656272377E+04      0.4943886291E+04      0.1362906365E+00
          0                12           2            63    9     1       0.1361437100E+00      39   70    1       0.6244290571E+03      0.6245807107E+03      0.1656272377E+04      0.1361437100E+00

    ------------------------------------------------
       NWT REQUIRED           12 OUTER ITERATIONS 
       AND A TOTAL OF         24 INNER ITERATIONS.
    ------------------------------------------------

 OUTPUT CONTROL FOR STRESS PERIOD    1   TIME STEP  104
    SAVE HEAD FOR ALL LAYERS
    SAVE DRAWDOWN FOR ALL LAYERS
    SAVE BUDGET
    PRINT BUDGET
 UBDSV1 SAVING "         STORAGE" ON UNIT   9 AT TIME STEP104, STRESS PERIOD   1
 UBDSV2 SAVING "   CONSTANT HEAD" ON UNIT   9 AT TIME STEP104, STRESS PERIOD   1
 UBDSV1 SAVING "FLOW RIGHT FACE " ON UNIT   9 AT TIME STEP104, STRESS PERIOD   1
 UBDSV1 SAVING "FLOW FRONT FACE " ON UNIT   9 AT TIME STEP104, STRESS PERIOD   1
 UBDSV4 SAVING "   RIVER LEAKAGE" ON UNIT   9 AT TIME STEP104, STRESS PERIOD   1
 UBDSV3 SAVING "        RECHARGE" ON UNIT   9 AT TIME STEP104, STRESS PERIOD   1

 HEAD WILL BE SAVED ON UNIT   37 AT END OF TIME STEP  104, STRESS PERIOD    1

 DRAWDOWN WILL BE SAVED ON UNIT   38 AT END OF TIME STEP  104, STRESS PERIOD    1
1
  VOLUMETRIC BUDGET FOR ENTIRE MODEL AT END OF TIME STEP  104, STRESS PERIOD   1
  ------------------------------------------------------------------------------

     CUMULATIVE VOLUMES      L**3       RATES FOR THIS TIME STEP      L**3/T
     ------------------                 ------------------------

           IN:                                      IN:
           ---                                      ---
             STORAGE =    95283672.0000               STORAGE =      871431.4375
       CONSTANT HEAD =           0.0000         CONSTANT HEAD =           0.0000
       RIVER LEAKAGE =   200096528.0000         RIVER LEAKAGE =    18106370.0000
            RECHARGE =      174859.3438              RECHARGE =           0.2155

            TOTAL IN =   295555072.0000              TOTAL IN =    18977802.0000

          OUT:                                     OUT:
          ----                                     ----
             STORAGE =   295082112.0000               STORAGE =    18969772.0000
       CONSTANT HEAD =           0.0000         CONSTANT HEAD =           0.0000
       RIVER LEAKAGE =      509524.8125         RIVER LEAKAGE =        7769.8477
            RECHARGE =           0.0000              RECHARGE =           0.0000

           TOTAL OUT =   295591648.0000             TOTAL OUT =    18977542.0000

            IN - OUT =      -36576.0000              IN - OUT =         260.0000

 PERCENT DISCREPANCY =          -0.01     PERCENT DISCREPANCY =           0.00






         TIME SUMMARY AT END OF TIME STEP  104 IN STRESS PERIOD    1
                    SECONDS     MINUTES      HOURS       DAYS        YEARS
                    -----------------------------------------------------------
   TIME STEP LENGTH  86400.      1440.0      24.000      1.0000     2.73785E-03
 STRESS PERIOD TIME 8.98560E+06 1.49760E+05  2496.0      104.00     0.28474    
         TOTAL TIME 8.98560E+06 1.49760E+05  2496.0      104.00     0.28474    
1
 
 SOLVING FOR HEAD 
                                                   Max.-Head-Change                        Max.-Flux-Residual
  Residual-Control   Outer-Iter.   Inner-Iter.     Column Row Layer    Max.-Head-Change    Column Row Layer    Max.-Flux-Residual            L2-New               L2-Old           Solver-Max-Delh
          0                 1           2            62   26     1       0.4019912704E+04      43   59    1       0.3823232190E+06      0.7911809607E+06      0.2363196403E+03      0.4019912704E+04
          1                 1           0            62   26     1       0.2813938845E+04      62   26    1      -0.6858753599E+09      0.8412886804E+09      0.7911809607E+06      0.4019912704E+04
          2                 1           0            62   26     1       0.1969757158E+04      62   26    1      -0.4790654287E+09      0.5879660403E+09      0.8412886804E+09      0.4019912704E+04
          3                 1           0            62   26     1       0.1378829987E+04      62   26    1      -0.3342984793E+09      0.4106424149E+09      0.5879660403E+09      0.4019912704E+04
          4                 1           0            62   26     1       0.9651809745E+03      62   26    1      -0.2329616164E+09      0.2865187090E+09      0.4106424149E+09      0.4019912704E+04
          5                 1           0            62   26     1       0.6756266707E+03      62   26    1      -0.1620258137E+09      0.1996365108E+09      0.2865187090E+09      0.4019912704E+04
          6                 1           0            62   26     1       0.4729386614E+03      62   26    1      -0.1123707526E+09      0.1388256446E+09      0.1996365108E+09      0.4019912704E+04
          7                 1           0            62   26     1       0.3310570573E+03      62   26    1      -0.7761222702E+08      0.9626013638E+08      0.1388256446E+09      0.4019912704E+04
          8                 1           0            62   26     1       0.2317399362E+03      62   26    1      -0.5328127878E+08      0.6647010765E+08      0.9626013638E+08      0.4019912704E+04
          9                 1           0            62   26     1       0.1622179526E+03      62   26    1      -0.3624961530E+08      0.4563316119E+08      0.6647010765E+08      0.4019912704E+04
                                                   Max.-Head-Change                        Max.-Flux-Residual
  Residual-Control   Outer-Iter.   Inner-Iter.     Column Row Layer    Max.-Head-Change    Column Row Layer    Max.-Flux-Residual            L2-New               L2-Old           Solver-Max-Delh
         10                 1           0            62   26     1       0.1135525649E+03      62   26    1      -0.2432745107E+08      0.3106786946E+08      0.4563316119E+08      0.4019912704E+04
         11                 1           0            62   26     1       0.7948679405E+02      62   26    1      -0.1598193625E+08      0.2090349140E+08      0.3106786946E+08      0.4019912704E+04
         12                 1           0            62   26     1       0.5564075489E+02      62   26    1      -0.1014007598E+08      0.1379904530E+08      0.2090349140E+08      0.4019912704E+04
         13                 1           0            62   26     1       0.3894852776E+02      62   26    1      -0.6050773856E+07      0.8661366943E+07      0.1379904530E+08      0.4019912704E+04
         14                 1           0            62   26     1       0.2726396897E+02      62   26    1      -0.3188262419E+07      0.4680484143E+07      0.8661366943E+07      0.4019912704E+04
         15                 1           0            62   26     1       0.1908477795E+02      59   33    1      -0.1646004642E+07      0.2581961250E+07      0.4680484143E+07      0.4019912704E+04
         16                 1           0            62   26     1       0.1335934434E+02      59   33    1      -0.1104669161E+07      0.1572950528E+07      0.2581961250E+07      0.4019912704E+04
         17                 1           0            62   26     1       0.9351540878E+01      59   33    1      -0.7260810398E+06      0.1089050608E+07      0.1572950528E+07      0.4019912704E+04
         18                 1           0            62   26     1       0.6546078503E+01      59   33    1      -0.4612385586E+06      0.9137627467E+06      0.1089050608E+07      0.4019912704E+04
          0                 2           2            62   26     1       0.4017280869E+04      43   59    1       0.3816383804E+06      0.8362465639E+06      0.9137627467E+06      0.4017280869E+04
                                                   Max.-Head-Change                        Max.-Flux-Residual
  Residual-Control   Outer-Iter.   Inner-Iter.     Column Row Layer    Max.-Head-Change    Column Row Layer    Max.-Flux-Residual            L2-New               L2-Old           Solver-Max-Delh
          1                 2           0            62   26     1       0.2812096561E+04      62   26    1      -0.6865466051E+09      0.8162866674E+09      0.8362465639E+06      0.4017280869E+04
          2                 2           0            62   26     1       0.1968467559E+04      62   26    1      -0.4798720723E+09      0.5708110434E+09      0.8162866674E+09      0.4017280869E+04
          3                 2           0            62   26     1       0.1377927268E+04      62   26    1      -0.3351999018E+09      0.3989801625E+09      0.5708110434E+09      0.4017280869E+04
          4                 2           0            62   26     1       0.9645490710E+03      62   26    1      -0.2339293842E+09      0.2787011312E+09      0.3989801625E+09      0.4017280869E+04
          5                 2           0            62   26     1       0.6751843382E+03      62   26    1      -0.1630400231E+09      0.1945097973E+09      0.2787011312E+09      0.4017280869E+04
          6                 2           0            62   26     1       0.4726290287E+03      62   26    1      -0.1134174711E+09      0.1355820139E+09      0.1945097973E+09      0.4017280869E+04
          7                 2           0            62   26     1       0.3308403145E+03      62   26    1      -0.7868170066E+08      0.9433400623E+08      0.1355820139E+09      0.4017280869E+04
          8                 2           0            62   26     1       0.2315882162E+03      62   26    1      -0.5436668189E+08      0.6546426848E+08      0.9433400623E+08      0.4017280869E+04
          9                 2           0            62   26     1       0.1621117486E+03      62   26    1      -0.3734616904E+08      0.4526926397E+08      0.6546426848E+08      0.4017280869E+04
         10                 2           0            62   26     1       0.1134782221E+03      62   26    1      -0.2543181025E+08      0.3114956790E+08      0.4526926397E+08      0.4017280869E+04
                                                   Max.-Head-Change                        Max.-Flux-Residual
  Residual-Control   Outer-Iter.   Inner-Iter.     Column Row Layer    Max.-Head-Change    Column Row Layer    Max.-Flux-Residual            L2-New               L2-Old           Solver-Max-Delh
         11                 2           0            62   26     1       0.7943475409E+02      62   26    1      -0.1709175924E+08      0.2129021024E+08      0.3114956790E+08      0.4017280869E+04
         12                 2           0            62   26     1       0.5560432692E+02      62   26    1      -0.1125372363E+08      0.1439783132E+08      0.2129021024E+08      0.4017280869E+04
         13                 2           0            62   26     1       0.3892302818E+02      62   26    1      -0.7167098771E+07      0.9532141961E+07      0.1439783132E+08      0.4017280869E+04
         14                 2           0            62   26     1       0.2724611926E+02      62   26    1      -0.4306461420E+07      0.5598224728E+07      0.9532141961E+07      0.4017280869E+04
         15                 2           0            62   26     1       0.1907228316E+02      62   26    1      -0.2304015308E+07      0.2953403899E+07      0.5598224728E+07      0.4017280869E+04
         16                 2           0            62   26     1       0.1335059798E+02      62   26    1      -0.1427613408E+07      0.1808977324E+07      0.2953403899E+07      0.4017280869E+04
         17                 2           0            62   26     1       0.9345418429E+01      62   26    1      -0.8534571749E+06      0.1217101558E+07      0.1808977324E+07      0.4017280869E+04
         18                 2           0            62   26     1       0.6541792789E+01      62   26    1      -0.4519381036E+06      0.9494724810E+06      0.1217101558E+07      0.4017280869E+04
          0                 3           2            62   18     1       0.2729090137E+04      43   59    1       0.3809547685E+06      0.8513477826E+06      0.9494724810E+06      0.2729090137E+04
          1                 3           0            62   18     1       0.1910363064E+04      62   27    1      -0.1733937688E+09      0.4418817123E+09      0.8513477826E+06      0.2729090137E+04
                                                   Max.-Head-Change                        Max.-Flux-Residual
  Residual-Control   Outer-Iter.   Inner-Iter.     Column Row Layer    Max.-Head-Change    Column Row Layer    Max.-Flux-Residual            L2-New               L2-Old           Solver-Max-Delh
          2                 3           0            62   18     1       0.1337254122E+04      62   27    1      -0.1214704509E+09      0.3095474175E+09      0.4418817123E+09      0.2729090137E+04
          3                 3           0            62   18     1       0.9360778693E+03      62   27    1      -0.8512412906E+08      0.2169165705E+09      0.3095474175E+09      0.2729090137E+04
          4                 3           0            62   18     1       0.6552544973E+03      62   27    1      -0.5968170418E+08      0.1520788300E+09      0.2169165705E+09      0.2729090137E+04
          5                 3           0            62   18     1       0.4586781403E+03      62   27    1      -0.4187200707E+08      0.1066982962E+09      0.1520788300E+09      0.2729090137E+04
          6                 3           0            62   18     1       0.3210746928E+03      62   27    1      -0.2940521930E+08      0.7494115704E+08      0.1066982962E+09      0.2729090137E+04
          7                 3           0            62   18     1       0.2247522811E+03      62   27    1      -0.2067848766E+08      0.5271145158E+08      0.7494115704E+08      0.2729090137E+04
          8                 3           0            62   18     1       0.1573265941E+03      62   27    1      -0.1456977941E+08      0.3715237159E+08      0.5271145158E+08      0.2729090137E+04
          9                 3           0            62   18     1       0.1101286140E+03      62   27    1      -0.1029368370E+08      0.2627862434E+08      0.3715237159E+08      0.2729090137E+04
         10                 3           0            62   18     1       0.7709002848E+02      62   27    1      -0.7300425231E+07      0.1868548911E+08      0.2627862434E+08      0.2729090137E+04
         11                 3           0            62   18     1       0.5396301902E+02      62   27    1      -0.5205144425E+07      0.1339369040E+08      0.1868548911E+08      0.2729090137E+04
                                                   Max.-Head-Change                        Max.-Flux-Residual
  Residual-Control   Outer-Iter.   Inner-Iter.     Column Row Layer    Max.-Head-Change    Column Row Layer    Max.-Flux-Residual            L2-New               L2-Old           Solver-Max-Delh
         12                 3           0            62   18     1       0.3777411267E+02      62   27    1      -0.3738451600E+07      0.9691821057E+07      0.1339369040E+08      0.2729090137E+04
         13                 3           0            62   18     1       0.2644187842E+02      62   27    1      -0.2711769640E+07      0.7054882194E+07      0.9691821057E+07      0.2729090137E+04
         14                 3           0            62   18     1       0.1850931458E+02      62   27    1      -0.1985873272E+07      0.4720024233E+07      0.7054882194E+07      0.2729090137E+04
         15                 3           0            62   18     1       0.1295651998E+02      62   27    1      -0.1278281356E+07      0.2751297006E+07      0.4720024233E+07      0.2729090137E+04
         16                 3           0            62   18     1       0.9069563834E+01      62   27    1      -0.7835575821E+06      0.1667039976E+07      0.2751297006E+07      0.2729090137E+04
         17                 3           0            62   18     1       0.6348694576E+01      60   32    1      -0.4937967502E+06      0.1176147459E+07      0.1667039976E+07      0.2729090137E+04
         18                 3           0            62   18     1       0.4444086127E+01      43   59    1       0.3799799291E+06      0.9563839785E+06      0.1176147459E+07      0.2729090137E+04
          0                 4           2            62   18     1       0.2727877522E+04      43   59    1       0.3802723811E+06      0.8800852702E+06      0.9563839785E+06      0.2727877522E+04
          1                 4           0            62   18     1       0.1909514233E+04      62   18    1      -0.1446315318E+09      0.3864742890E+09      0.8800852702E+06      0.2727877522E+04
          2                 4           0            62   18     1       0.1336659940E+04      62   18    1      -0.1013674237E+09      0.2708144078E+09      0.3864742890E+09      0.2727877522E+04
                                                   Max.-Head-Change                        Max.-Flux-Residual
  Residual-Control   Outer-Iter.   Inner-Iter.     Column Row Layer    Max.-Head-Change    Column Row Layer    Max.-Flux-Residual            L2-New               L2-Old           Solver-Max-Delh
          3                 4           0            62   18     1       0.9356619421E+03      62   18    1      -0.7108254849E+08      0.1898550674E+09      0.2708144078E+09      0.2727877522E+04
          4                 4           0            62   18     1       0.6549633483E+03      62   18    1      -0.4988313621E+08      0.1331864786E+09      0.1898550674E+09      0.2727877522E+04
          5                 4           0            62   18     1       0.4584743360E+03      62   18    1      -0.3504354787E+08      0.9352301385E+08      0.1331864786E+09      0.2727877522E+04
          6                 4           0            62   18     1       0.3209320297E+03      62   25    1      -0.2466353767E+08      0.6576621526E+08      0.9352301385E+08      0.2727877522E+04
          7                 4           0            62   18     1       0.2246524170E+03      62   25    1      -0.1740348695E+08      0.4633340733E+08      0.6576621526E+08      0.2727877522E+04
          8                 4           0            62   18     1       0.1572566892E+03      62   25    1      -0.1232146211E+08      0.3272555587E+08      0.4633340733E+08      0.2727877522E+04
          9                 4           0            62   18     1       0.1100796806E+03      62   25    1      -0.8764047978E+07      0.2321177096E+08      0.3272555587E+08      0.2727877522E+04
         10                 4           0            62   18     1       0.7705577509E+02      62   25    1      -0.6273858130E+07      0.1656198503E+08      0.2321177096E+08      0.2727877522E+04
         11                 4           0            62   18     1       0.5393904165E+02      62   25    1      -0.4530725266E+07      0.1191807238E+08      0.1656198503E+08      0.2727877522E+04
         12                 4           0            62   18     1       0.3775732851E+02      62   25    1      -0.3310532282E+07      0.8681669595E+07      0.1191807238E+08      0.2727877522E+04
                                                   Max.-Head-Change                        Max.-Flux-Residual
  Residual-Control   Outer-Iter.   Inner-Iter.     Column Row Layer    Max.-Head-Change    Column Row Layer    Max.-Flux-Residual            L2-New               L2-Old           Solver-Max-Delh
         13                 4           0            62   18     1       0.2643012951E+02      62   25    1      -0.2456397208E+07      0.6413886716E+07      0.8681669595E+07      0.2727877522E+04
         14                 4           0            62   18     1       0.1850109034E+02      62   25    1      -0.1858505169E+07      0.4603638385E+07      0.6413886716E+07      0.2727877522E+04
         15                 4           0            62   18     1       0.1295076302E+02      61   31    1      -0.1235946997E+07      0.2841823638E+07      0.4603638385E+07      0.2727877522E+04
         16                 4           0            62   18     1       0.9065533957E+01      61   31    1      -0.8507986576E+06      0.1722405169E+07      0.2841823638E+07      0.2727877522E+04
         17                 4           0            62   18     1       0.6345873662E+01      61   31    1      -0.5813702679E+06      0.1165786545E+07      0.1722405169E+07      0.2727877522E+04
         18                 4           0            62   18     1       0.4442111488E+01      61   31    1      -0.3928563656E+06      0.9743562008E+06      0.1165786545E+07      0.2727877522E+04
          0                 5           2            62   18     1       0.2726666521E+04      43   59    1       0.3795912161E+06      0.9161057002E+06      0.9743562008E+06      0.2726666521E+04
          1                 5           0            62   18     1       0.1908666532E+04      62   18    1      -0.1448023498E+09      0.3430060185E+09      0.9161057002E+06      0.2726666521E+04
          2                 5           0            62   18     1       0.1336066550E+04      62   18    1      -0.1015574481E+09      0.2404630503E+09      0.3430060185E+09      0.2726666521E+04
          3                 5           0            62   18     1       0.9352465689E+03      62   18    1      -0.7128601739E+08      0.1686857656E+09      0.2404630503E+09      0.2726666521E+04
                                                   Max.-Head-Change                        Max.-Flux-Residual
  Residual-Control   Outer-Iter.   Inner-Iter.     Column Row Layer    Max.-Head-Change    Column Row Layer    Max.-Flux-Residual            L2-New               L2-Old           Solver-Max-Delh
          4                 5           0            62   18     1       0.6546725871E+03      62   18    1      -0.5009601628E+08      0.1184448552E+09      0.1686857656E+09      0.2726666521E+04
          5                 5           0            62   18     1       0.4582708032E+03      62   18    1      -0.3526301576E+08      0.8328102326E+08      0.1184448552E+09      0.2726666521E+04
          6                 5           0            62   18     1       0.3207895568E+03      62   18    1      -0.2487991557E+08      0.5867464958E+08      0.8328102326E+08      0.2726666521E+04
          7                 5           0            62   18     1       0.2245526859E+03      62   18    1      -0.1761176501E+08      0.4144724422E+08      0.5867464958E+08      0.2726666521E+04
          8                 5           0            62   18     1       0.1571868775E+03      62   18    1      -0.1252407790E+08      0.2938089473E+08      0.4144724422E+08      0.2726666521E+04
          9                 5           0            62   18     1       0.1100308123E+03      62   18    1      -0.8962696993E+07      0.2094649025E+08      0.2938089473E+08      0.2726666521E+04
         10                 5           0            62   18     1       0.7702156733E+02      62   18    1      -0.6469730397E+07      0.1505239803E+08      0.2094649025E+08      0.2726666521E+04
         11                 5           0            62   18     1       0.5391509621E+02      62   18    1      -0.4724653810E+07      0.1093668971E+08      0.1505239803E+08      0.2726666521E+04
         12                 5           0            62   18     1       0.3774056671E+02      62   18    1      -0.3503100219E+07      0.8068619079E+07      0.1093668971E+08      0.2726666521E+04
         13                 5           0            62   18     1       0.2641839624E+02      62   18    1      -0.2648012721E+07      0.6076668475E+07      0.8068619079E+07      0.2726666521E+04
                                                   Max.-Head-Change                        Max.-Flux-Residual
  Residual-Control   Outer-Iter.   Inner-Iter.     Column Row Layer    Max.-Head-Change    Column Row Layer    Max.-Flux-Residual            L2-New               L2-Old           Solver-Max-Delh
         14                 5           0            62   18     1       0.1849287706E+02      62   18    1      -0.2049451680E+07      0.4627361316E+07      0.6076668475E+07      0.2726666521E+04
         15                 5           0            62   18     1       0.1294501372E+02      62   18    1      -0.1634170253E+07      0.3171761129E+07      0.4627361316E+07      0.2726666521E+04
         16                 5           0            62   18     1       0.9061509449E+01      62   18    1      -0.1079725960E+07      0.2052713440E+07      0.3171761129E+07      0.2726666521E+04
         17                 5           0            62   18     1       0.6343056506E+01      62   18    1      -0.6899012838E+06      0.1408050181E+07      0.2052713440E+07      0.2726666521E+04
         18                 5           0            62   18     1       0.4440139479E+01      62   18    1      -0.4172036956E+06      0.1085548587E+07      0.1408050181E+07      0.2726666521E+04
          0                 6           2            62   19     1       0.2199597717E+04      43   59    1       0.3789112712E+06      0.9570296285E+06      0.1085548587E+07      0.2199597717E+04
          1                 6           0            62   19     1       0.1539718376E+04      62   19    1      -0.1245638767E+09      0.2409036008E+09      0.9570296285E+06      0.2199597717E+04
          2                 6           0            62   19     1       0.1077802845E+04      62   19    1      -0.8737943981E+08      0.1689022828E+09      0.2409036008E+09      0.2199597717E+04
          3                 6           0            62   19     1       0.7544619785E+03      62   19    1      -0.6135033441E+08      0.1185049003E+09      0.1689022828E+09      0.2199597717E+04
          4                 6           0            62   19     1       0.5281233760E+03      62   19    1      -0.4312996093E+08      0.8323068820E+08      0.1185049003E+09      0.2199597717E+04
                                                   Max.-Head-Change                        Max.-Flux-Residual
  Residual-Control   Outer-Iter.   Inner-Iter.     Column Row Layer    Max.-Head-Change    Column Row Layer    Max.-Flux-Residual            L2-New               L2-Old           Solver-Max-Delh
          5                 6           0            62   19     1       0.3696863569E+03      62   19    1      -0.3037569972E+08      0.5854459042E+08      0.8323068820E+08      0.2199597717E+04
          6                 6           0            62   19     1       0.2587804454E+03      62   19    1      -0.2144771702E+08      0.4127502525E+08      0.5854459042E+08      0.2199597717E+04
          7                 6           0            62   19     1       0.1811463087E+03      62   19    1      -0.1519814857E+08      0.2918183189E+08      0.4127502525E+08      0.2199597717E+04
          8                 6           0            62   19     1       0.1268024139E+03      62   19    1      -0.1082346286E+08      0.2070250592E+08      0.2918183189E+08      0.2199597717E+04
          9                 6           0            62   19     1       0.8876168824E+02      62   19    1      -0.7761182920E+07      0.1478061985E+08      0.2070250592E+08      0.2199597717E+04
         10                 6           0            62   19     1       0.6213318071E+02      62   19    1      -0.5617586996E+07      0.1064570966E+08      0.1478061985E+08      0.2199597717E+04
         11                 6           0            62   19     1       0.4349322576E+02      62   19    1      -0.4117069875E+07      0.7759967024E+07      0.1064570966E+08      0.2199597717E+04
         12                 6           0            62   19     1       0.3044525751E+02      62   19    1      -0.3066707908E+07      0.5750902548E+07      0.7759967024E+07      0.2199597717E+04
         13                 6           0            62   19     1       0.2131167989E+02      62   19    1      -0.2331454544E+07      0.4357681736E+07      0.5750902548E+07      0.2199597717E+04
         14                 6           0            62   19     1       0.1491817567E+02      62   19    1      -0.1816777198E+07      0.3397131190E+07      0.4357681736E+07      0.2199597717E+04
                                                   Max.-Head-Change                        Max.-Flux-Residual
  Residual-Control   Outer-Iter.   Inner-Iter.     Column Row Layer    Max.-Head-Change    Column Row Layer    Max.-Flux-Residual            L2-New               L2-Old           Solver-Max-Delh
         15                 6           0            62   19     1       0.1044272279E+02      62   24    1      -0.1342340037E+07      0.2537500840E+07      0.3397131190E+07      0.2199597717E+04
         16                 6           0            62   19     1       0.7309905830E+01      62   24    1      -0.9056507019E+06      0.1762513894E+07      0.2537500840E+07      0.2199597717E+04
         17                 6           0            62   19     1       0.5116933994E+01      62   24    1      -0.6001934658E+06      0.1305744009E+07      0.1762513894E+07      0.2199597717E+04
         18                 6           0            62   19     1       0.3581853735E+01      62   24    1      -0.3864837978E+06      0.1085980052E+07      0.1305744009E+07      0.2199597717E+04
          0                 7           2            62   22     1       0.2168934595E+04      43   59    1       0.3782325442E+06      0.1001374499E+07      0.1085980052E+07      0.2168934595E+04
          1                 7           0            62   22     1       0.1518254191E+04      62   22    1      -0.1207932021E+09      0.1697710963E+09      0.1001374499E+07      0.2168934595E+04
          2                 7           0            62   22     1       0.1062777916E+04      62   22    1      -0.8469112893E+08      0.1190368920E+09      0.1697710963E+09      0.2168934595E+04
          3                 7           0            62   22     1       0.7439445282E+03      62   22    1      -0.5941967816E+08      0.8352792167E+08      0.1190368920E+09      0.2168934595E+04
          4                 7           0            62   22     1       0.5207611609E+03      62   22    1      -0.4172966292E+08      0.5867724135E+08      0.8352792167E+08      0.2168934595E+04
          5                 7           0            62   22     1       0.3645328064E+03      62   22    1      -0.2934665247E+08      0.4128980758E+08      0.5867724135E+08      0.2168934595E+04
                                                   Max.-Head-Change                        Max.-Flux-Residual
  Residual-Control   Outer-Iter.   Inner-Iter.     Column Row Layer    Max.-Head-Change    Column Row Layer    Max.-Flux-Residual            L2-New               L2-Old           Solver-Max-Delh
          6                 7           0            62   22     1       0.2551729601E+03      62   22    1      -0.2067855054E+08      0.2913379584E+08      0.4128980758E+08      0.2168934595E+04
          7                 7           0            62   22     1       0.1786210691E+03      62   22    1      -0.1461088916E+08      0.2062007827E+08      0.2913379584E+08      0.2168934595E+04
          8                 7           0            62   22     1       0.1250347462E+03      62   22    1      -0.1036352693E+08      0.1463811614E+08      0.2062007827E+08      0.2168934595E+04
          9                 7           0            62   22     1       0.8752432086E+02      62   22    1      -0.7390379593E+07      0.1046934534E+08      0.1463811614E+08      0.2168934595E+04
         10                 7           0            62   22     1       0.6126702356E+02      62   22    1      -0.5309176491E+07      0.7566397355E+07      0.1046934534E+08      0.2168934595E+04
         11                 7           0            62   22     1       0.4288691576E+02      62   23    1      -0.3869679849E+07      0.5546064280E+07      0.7566397355E+07      0.2168934595E+04
         12                 7           0            62   22     1       0.3002084052E+02      62   23    1      -0.2864928949E+07      0.4146358228E+07      0.5546064280E+07      0.2168934595E+04
         13                 7           0            62   22     1       0.2101458801E+02      62   23    1      -0.2161603331E+07      0.3183504230E+07      0.4146358228E+07      0.2168934595E+04
         14                 7           0            62   22     1       0.1471021135E+02      62   23    1      -0.1669275406E+07      0.2527744890E+07      0.3183504230E+07      0.2168934595E+04
         15                 7           0            62   22     1       0.1029714777E+02      62   23    1      -0.1324645865E+07      0.2086492939E+07      0.2527744890E+07      0.2168934595E+04
                                                   Max.-Head-Change                        Max.-Flux-Residual
  Residual-Control   Outer-Iter.   Inner-Iter.     Column Row Layer    Max.-Head-Change    Column Row Layer    Max.-Flux-Residual            L2-New               L2-Old           Solver-Max-Delh
         16                 7           0            62   22     1       0.7208003318E+01      62   23    1      -0.9415313094E+06      0.1625429345E+07      0.2086492939E+07      0.2168934595E+04
         17                 7           0            62   22     1       0.5045602237E+01      62   23    1      -0.6337529459E+06      0.1309364015E+07      0.1625429345E+07      0.2168934595E+04
         18                 7           0            62   22     1       0.3531921506E+01      62   23    1      -0.4184200827E+06      0.1136853620E+07      0.1309364015E+07      0.2168934595E+04
          0                 8           2            61   29     1       0.2109096380E+03      43   59    1       0.3775550331E+06      0.1052744582E+07      0.1136853620E+07      0.2109096380E+03
          1                 8           0            61   29     1       0.1476367441E+03      63   17    1      -0.6526036413E+07      0.7065097836E+07      0.1052744582E+07      0.2109096380E+03
          2                 8           0            61   29     1       0.1033457191E+03      63   17    1      -0.4142546727E+07      0.4726345579E+07      0.7065097836E+07      0.2109096380E+03
          3                 8           0            61   29     1       0.7234200214E+02      63   17    1      -0.2474103975E+07      0.3208855754E+07      0.4726345579E+07      0.2109096380E+03
          4                 8           0            61   29     1       0.5063940064E+02      61   29    1      -0.1779292383E+07      0.2294164069E+07      0.3208855754E+07      0.2109096380E+03
          5                 8           0            61   29     1       0.3544757984E+02      61   29    1      -0.1641917151E+07      0.1842531749E+07      0.2294164069E+07      0.2109096380E+03
          6                 8           0            61   29     1       0.2481330547E+02      61   29    1      -0.1545754780E+07      0.1773913971E+07      0.1842531749E+07      0.2109096380E+03
                                                   Max.-Head-Change                        Max.-Flux-Residual
  Residual-Control   Outer-Iter.   Inner-Iter.     Column Row Layer    Max.-Head-Change    Column Row Layer    Max.-Flux-Residual            L2-New               L2-Old           Solver-Max-Delh
          7                 8           0            61   29     1       0.1736931353E+02      61   29    1      -0.1287132468E+07      0.1585037671E+07      0.1773913971E+07      0.2109096380E+03
          0                 9           2            63   17     1       0.9781212404E+02      61   29    1      -0.5402824191E+06      0.1104482800E+07      0.1585037671E+07      0.9781212404E+02
          1                 9           0            63   17     1       0.6846848567E+02      63   17    1      -0.7173926664E+07      0.7191338063E+07      0.1104482800E+07      0.9781212404E+02
          2                 9           0            63   17     1       0.4792793915E+02      63   17    1      -0.4792360496E+07      0.4803539598E+07      0.7191338063E+07      0.9781212404E+02
          3                 9           0            63   17     1       0.3354955683E+02      63   17    1      -0.3125264207E+07      0.3174824981E+07      0.4803539598E+07      0.9781212404E+02
          4                 9           0            63   17     1       0.2348468938E+02      63   17    1      -0.1958296824E+07      0.2087273991E+07      0.3174824981E+07      0.9781212404E+02
          5                 9           0            63   17     1       0.1643928229E+02      63   17    1      -0.1073941378E+07      0.1361541986E+07      0.2087273991E+07      0.9781212404E+02
          0                10           2            39   70     1       0.1857444630E+03      61   29    1      -0.4540248401E+06      0.9876289565E+06      0.1361541986E+07      0.1857444630E+03
          1                10           0            39   70     1       0.1300211219E+03      39   70    1      -0.2682702359E+08      0.2683101703E+08      0.9876289565E+06      0.1857444630E+03
          2                10           0            39   70     1       0.9101478376E+02      39   70    1      -0.1876035930E+08      0.1876273036E+08      0.2683101703E+08      0.1857444630E+03
                                                   Max.-Head-Change                        Max.-Flux-Residual
  Residual-Control   Outer-Iter.   Inner-Iter.     Column Row Layer    Max.-Head-Change    Column Row Layer    Max.-Flux-Residual            L2-New               L2-Old           Solver-Max-Delh
          3                10           0            39   70     1       0.6371034755E+02      39   70    1      -0.1311369440E+08      0.1312336928E+08      0.1876273036E+08      0.1857444630E+03
          4                10           0            39   70     1       0.4459724253E+02      39   70    1      -0.9161031850E+07      0.9183934299E+07      0.1312336928E+08      0.1857444630E+03
          5                10           0            39   70     1       0.3121806924E+02      39   70    1      -0.6394168121E+07      0.6437944176E+07      0.9183934299E+07      0.1857444630E+03
          6                10           0            39   70     1       0.2185264809E+02      39   70    1      -0.4457363546E+07      0.4532249478E+07      0.6437944176E+07      0.1857444630E+03
          7                10           0            39   70     1       0.1529685340E+02      39   70    1      -0.3101600369E+07      0.3221364119E+07      0.4532249478E+07      0.1857444630E+03
          8                10           0            39   70     1       0.1070779720E+02      39   70    1      -0.2152566162E+07      0.2335083004E+07      0.3221364119E+07      0.1857444630E+03
          9                10           0            39   70     1       0.7495457913E+01      39   70    1      -0.1488242228E+07      0.1754609700E+07      0.2335083004E+07      0.1857444630E+03
         10                10           0            39   70     1       0.5246820450E+01      39   70    1      -0.1023215483E+07      0.1393834560E+07      0.1754609700E+07      0.1857444630E+03
         11                10           0            39   70     1       0.3672774252E+01      39   70    1      -0.6976967670E+06      0.1185472260E+07      0.1393834560E+07      0.1857444630E+03
          0                11           2            61   29     1      -0.4222350469E+01      39   70    1      -0.4698336697E+06      0.1074899716E+07      0.1185472260E+07     -0.4222350469E+01
                                                   Max.-Head-Change                        Max.-Flux-Residual
  Residual-Control   Outer-Iter.   Inner-Iter.     Column Row Layer    Max.-Head-Change    Column Row Layer    Max.-Flux-Residual            L2-New               L2-Old           Solver-Max-Delh
          0                12           2            43   59     1      -0.7697837175E+00      43   59    1      -0.4549848243E+06      0.4599247099E+06      0.1074899716E+07     -0.7697837175E+00
          0                13           2            63    9     1       0.1369888986E+00      43   59    1      -0.2274922969E+05      0.2299612493E+05      0.4599247099E+06      0.1369888986E+00
          0                14           2            63    9     1       0.1368398044E+00      43   59    1      -0.1137233416E+04      0.1149638524E+04      0.2299612493E+05      0.1368398044E+00

    ------------------------------------------------
       NWT REQUIRED           14 OUTER ITERATIONS 
       AND A TOTAL OF         28 INNER ITERATIONS.
    ------------------------------------------------

 OUTPUT CONTROL FOR STRESS PERIOD    1   TIME STEP  105
    SAVE HEAD FOR ALL LAYERS
    SAVE DRAWDOWN FOR ALL LAYERS
    SAVE BUDGET
    PRINT BUDGET
 UBDSV1 SAVING "         STORAGE" ON UNIT   9 AT TIME STEP105, STRESS PERIOD   1
 UBDSV2 SAVING "   CONSTANT HEAD" ON UNIT   9 AT TIME STEP105, STRESS PERIOD   1
 UBDSV1 SAVING "FLOW RIGHT FACE " ON UNIT   9 AT TIME STEP105, STRESS PERIOD   1
 UBDSV1 SAVING "FLOW FRONT FACE " ON UNIT   9 AT TIME STEP105, STRESS PERIOD   1
 UBDSV4 SAVING "   RIVER LEAKAGE" ON UNIT   9 AT TIME STEP105, STRESS PERIOD   1
 UBDSV3 SAVING "        RECHARGE" ON UNIT   9 AT TIME STEP105, STRESS PERIOD   1

 HEAD WILL BE SAVED ON UNIT   37 AT END OF TIME STEP  105, STRESS PERIOD    1

 DRAWDOWN WILL BE SAVED ON UNIT   38 AT END OF TIME STEP  105, STRESS PERIOD    1
1
  VOLUMETRIC BUDGET FOR ENTIRE MODEL AT END OF TIME STEP  105, STRESS PERIOD   1
  ------------------------------------------------------------------------------

     CUMULATIVE VOLUMES      L**3       RATES FOR THIS TIME STEP      L**3/T
     ------------------                 ------------------------

           IN:                                      IN:
           ---                                      ---
             STORAGE =    96154648.0000               STORAGE =      870972.6875
       CONSTANT HEAD =           0.0000         CONSTANT HEAD =           0.0000
       RIVER LEAKAGE =   208198912.0000         RIVER LEAKAGE =     8102387.0000
            RECHARGE =      174859.3438              RECHARGE =       9.6894E-07

            TOTAL IN =   304528416.0000              TOTAL IN =     8973360.0000

          OUT:                                     OUT:
          ----                                     ----
             STORAGE =   304047520.0000               STORAGE =     8965408.0000
       CONSTANT HEAD =           0.0000         CONSTANT HEAD =           0.0000
       RIVER LEAKAGE =      517593.7812         RIVER LEAKAGE =        8068.9614
            RECHARGE =           0.0000              RECHARGE =           0.0000

           TOTAL OUT =   304565120.0000             TOTAL OUT =     8973477.0000

            IN - OUT =      -36704.0000              IN - OUT =        -117.0000

 PERCENT DISCREPANCY =          -0.01     PERCENT DISCREPANCY =          -0.00






         TIME SUMMARY AT END OF TIME STEP  105 IN STRESS PERIOD    1
                    SECONDS     MINUTES      HOURS       DAYS        YEARS
                    -----------------------------------------------------------
   TIME STEP LENGTH  86400.      1440.0      24.000      1.0000     2.73785E-03
 STRESS PERIOD TIME 9.07200E+06 1.51200E+05  2520.0      105.00     0.28747    
         TOTAL TIME 9.07200E+06 1.51200E+05  2520.0      105.00     0.28747    
1
 
 SOLVING FOR HEAD 
                                                   Max.-Head-Change                        Max.-Flux-Residual
  Residual-Control   Outer-Iter.   Inner-Iter.     Column Row Layer    Max.-Head-Change    Column Row Layer    Max.-Flux-Residual            L2-New               L2-Old           Solver-Max-Delh
          0                 1           2            40   53     1       0.1638049689E+01      43   59    1       0.2732446512E+06      0.8018497411E+06      0.5884034935E+02      0.1638049689E+01
          0                 2           2            40   53     1      -0.1416764173E+00      43   59    1      -0.2732446553E+05      0.8020968205E+05      0.8018497411E+06     -0.1416764173E+00
          0                 3           2            37   81     1       0.1391799620E+00      43   59    1      -0.1366222584E+04      0.4010690056E+04      0.8020968205E+05      0.1391799620E+00

    ------------------------------------------------
       NWT REQUIRED            3 OUTER ITERATIONS 
       AND A TOTAL OF          6 INNER ITERATIONS.
    ------------------------------------------------

 OUTPUT CONTROL FOR STRESS PERIOD    1   TIME STEP  106
    SAVE HEAD FOR ALL LAYERS
    SAVE DRAWDOWN FOR ALL LAYERS
    SAVE BUDGET
    PRINT BUDGET
 UBDSV1 SAVING "         STORAGE" ON UNIT   9 AT TIME STEP106, STRESS PERIOD   1
 UBDSV2 SAVING "   CONSTANT HEAD" ON UNIT   9 AT TIME STEP106, STRESS PERIOD   1
 UBDSV1 SAVING "FLOW RIGHT FACE " ON UNIT   9 AT TIME STEP106, STRESS PERIOD   1
 UBDSV1 SAVING "FLOW FRONT FACE " ON UNIT   9 AT TIME STEP106, STRESS PERIOD   1
 UBDSV4 SAVING "   RIVER LEAKAGE" ON UNIT   9 AT TIME STEP106, STRESS PERIOD   1
 UBDSV3 SAVING "        RECHARGE" ON UNIT   9 AT TIME STEP106, STRESS PERIOD   1

 HEAD WILL BE SAVED ON UNIT   37 AT END OF TIME STEP  106, STRESS PERIOD    1

 DRAWDOWN WILL BE SAVED ON UNIT   38 AT END OF TIME STEP  106, STRESS PERIOD    1
1
  VOLUMETRIC BUDGET FOR ENTIRE MODEL AT END OF TIME STEP  106, STRESS PERIOD   1
  ------------------------------------------------------------------------------

     CUMULATIVE VOLUMES      L**3       RATES FOR THIS TIME STEP      L**3/T
     ------------------                 ------------------------

           IN:                                      IN:
           ---                                      ---
             STORAGE =    97024760.0000               STORAGE =      870115.3125
       CONSTANT HEAD =           0.0000         CONSTANT HEAD =           0.0000
       RIVER LEAKAGE =   216818736.0000         RIVER LEAKAGE =     8619823.0000
            RECHARGE =      174859.3438              RECHARGE =       8.4670E-10

            TOTAL IN =   314018368.0000              TOTAL IN =     9489938.0000

          OUT:                                     OUT:
          ----                                     ----
             STORAGE =   313531680.0000               STORAGE =     9484154.0000
       CONSTANT HEAD =           0.0000         CONSTANT HEAD =           0.0000
       RIVER LEAKAGE =      525567.7500         RIVER LEAKAGE =        7973.9673
            RECHARGE =           0.0000              RECHARGE =           0.0000

           TOTAL OUT =   314057248.0000             TOTAL OUT =     9492128.0000

            IN - OUT =      -38880.0000              IN - OUT =       -2190.0000

 PERCENT DISCREPANCY =          -0.01     PERCENT DISCREPANCY =          -0.02






         TIME SUMMARY AT END OF TIME STEP  106 IN STRESS PERIOD    1
                    SECONDS     MINUTES      HOURS       DAYS        YEARS
                    -----------------------------------------------------------
   TIME STEP LENGTH  86400.      1440.0      24.000      1.0000     2.73785E-03
 STRESS PERIOD TIME 9.15840E+06 1.52640E+05  2544.0      106.00     0.29021    
         TOTAL TIME 9.15840E+06 1.52640E+05  2544.0      106.00     0.29021    
1
 
 SOLVING FOR HEAD 
                                                   Max.-Head-Change                        Max.-Flux-Residual
  Residual-Control   Outer-Iter.   Inner-Iter.     Column Row Layer    Max.-Head-Change    Column Row Layer    Max.-Flux-Residual            L2-New               L2-Old           Solver-Max-Delh
          0                 1           2            40   53     1       0.1637802721E+01      40   53    1       0.1489989512E+06      0.4730112988E+06      0.2009446061E+03      0.1637802721E+01
          0                 2           2            40   53     1      -0.1416549943E+00      40   53    1      -0.1492673397E+05      0.4733848561E+05      0.4730112988E+06     -0.1416549943E+00
          0                 3           2            37   81     1       0.1394743442E+00      62   14    1      -0.9136451043E+04      0.9991698187E+04      0.4733848561E+05      0.1394743442E+00

    ------------------------------------------------
       NWT REQUIRED            3 OUTER ITERATIONS 
       AND A TOTAL OF          6 INNER ITERATIONS.
    ------------------------------------------------

 OUTPUT CONTROL FOR STRESS PERIOD    1   TIME STEP  107
    SAVE HEAD FOR ALL LAYERS
    SAVE DRAWDOWN FOR ALL LAYERS
    SAVE BUDGET
    PRINT BUDGET
 UBDSV1 SAVING "         STORAGE" ON UNIT   9 AT TIME STEP107, STRESS PERIOD   1
 UBDSV2 SAVING "   CONSTANT HEAD" ON UNIT   9 AT TIME STEP107, STRESS PERIOD   1
 UBDSV1 SAVING "FLOW RIGHT FACE " ON UNIT   9 AT TIME STEP107, STRESS PERIOD   1
 UBDSV1 SAVING "FLOW FRONT FACE " ON UNIT   9 AT TIME STEP107, STRESS PERIOD   1
 UBDSV4 SAVING "   RIVER LEAKAGE" ON UNIT   9 AT TIME STEP107, STRESS PERIOD   1
 UBDSV3 SAVING "        RECHARGE" ON UNIT   9 AT TIME STEP107, STRESS PERIOD   1

 HEAD WILL BE SAVED ON UNIT   37 AT END OF TIME STEP  107, STRESS PERIOD    1

 DRAWDOWN WILL BE SAVED ON UNIT   38 AT END OF TIME STEP  107, STRESS PERIOD    1
1
  VOLUMETRIC BUDGET FOR ENTIRE MODEL AT END OF TIME STEP  107, STRESS PERIOD   1
  ------------------------------------------------------------------------------

     CUMULATIVE VOLUMES      L**3       RATES FOR THIS TIME STEP      L**3/T
     ------------------                 ------------------------

           IN:                                      IN:
           ---                                      ---
             STORAGE =    97894520.0000               STORAGE =      869763.6250
       CONSTANT HEAD =           0.0000         CONSTANT HEAD =           0.0000
       RIVER LEAKAGE =   221777792.0000         RIVER LEAKAGE =     4959060.0000
            RECHARGE =      174859.3438              RECHARGE =       4.4518E-10

            TOTAL IN =   319847168.0000              TOTAL IN =     5828823.5000

          OUT:                                     OUT:
          ----                                     ----
             STORAGE =   319354304.0000               STORAGE =     5822639.0000
       CONSTANT HEAD =           0.0000         CONSTANT HEAD =           0.0000
       RIVER LEAKAGE =      533575.5625         RIVER LEAKAGE =        8007.7842
            RECHARGE =           0.0000              RECHARGE =           0.0000

           TOTAL OUT =   319887872.0000             TOTAL OUT =     5830647.0000

            IN - OUT =      -40704.0000              IN - OUT =       -1823.5000

 PERCENT DISCREPANCY =          -0.01     PERCENT DISCREPANCY =          -0.03






         TIME SUMMARY AT END OF TIME STEP  107 IN STRESS PERIOD    1
                    SECONDS     MINUTES      HOURS       DAYS        YEARS
                    -----------------------------------------------------------
   TIME STEP LENGTH  86400.      1440.0      24.000      1.0000     2.73785E-03
 STRESS PERIOD TIME 9.24480E+06 1.54080E+05  2568.0      107.00     0.29295    
         TOTAL TIME 9.24480E+06 1.54080E+05  2568.0      107.00     0.29295    
1
 
 SOLVING FOR HEAD 
                                                   Max.-Head-Change                        Max.-Flux-Residual
  Residual-Control   Outer-Iter.   Inner-Iter.     Column Row Layer    Max.-Head-Change    Column Row Layer    Max.-Flux-Residual            L2-New               L2-Old           Solver-Max-Delh
          0                 1           2            40   53     1       0.1637555571E+01      40   53    1       0.1489986589E+06      0.4319521561E+06      0.4998307354E+03      0.1637555571E+01
          0                 2           2            40   53     1      -0.1416335557E+00      37   81    1      -0.2925881558E+05      0.5220394455E+05      0.4319521561E+06     -0.1416335557E+00
          0                 3           2            28   66     1       0.8476670631E-01      63    9    1      -0.7326146764E+04      0.7777331617E+04      0.5220394455E+05      0.8476670631E-01

    ------------------------------------------------
       NWT REQUIRED            3 OUTER ITERATIONS 
       AND A TOTAL OF          6 INNER ITERATIONS.
    ------------------------------------------------

 OUTPUT CONTROL FOR STRESS PERIOD    1   TIME STEP  108
    SAVE HEAD FOR ALL LAYERS
    SAVE DRAWDOWN FOR ALL LAYERS
    SAVE BUDGET
    PRINT BUDGET
 UBDSV1 SAVING "         STORAGE" ON UNIT   9 AT TIME STEP108, STRESS PERIOD   1
 UBDSV2 SAVING "   CONSTANT HEAD" ON UNIT   9 AT TIME STEP108, STRESS PERIOD   1
 UBDSV1 SAVING "FLOW RIGHT FACE " ON UNIT   9 AT TIME STEP108, STRESS PERIOD   1
 UBDSV1 SAVING "FLOW FRONT FACE " ON UNIT   9 AT TIME STEP108, STRESS PERIOD   1
 UBDSV4 SAVING "   RIVER LEAKAGE" ON UNIT   9 AT TIME STEP108, STRESS PERIOD   1
 UBDSV3 SAVING "        RECHARGE" ON UNIT   9 AT TIME STEP108, STRESS PERIOD   1

 HEAD WILL BE SAVED ON UNIT   37 AT END OF TIME STEP  108, STRESS PERIOD    1

 DRAWDOWN WILL BE SAVED ON UNIT   38 AT END OF TIME STEP  108, STRESS PERIOD    1
1
  VOLUMETRIC BUDGET FOR ENTIRE MODEL AT END OF TIME STEP  108, STRESS PERIOD   1
  ------------------------------------------------------------------------------

     CUMULATIVE VOLUMES      L**3       RATES FOR THIS TIME STEP      L**3/T
     ------------------                 ------------------------

           IN:                                      IN:
           ---                                      ---
             STORAGE =    98763808.0000               STORAGE =      869291.0000
       CONSTANT HEAD =           0.0000         CONSTANT HEAD =           0.0000
       RIVER LEAKAGE =   225939152.0000         RIVER LEAKAGE =     4161357.7500
            RECHARGE =      174859.3438              RECHARGE =       3.5597E-10

            TOTAL IN =   324877824.0000              TOTAL IN =     5030649.0000

          OUT:                                     OUT:
          ----                                     ----
             STORAGE =   324378400.0000               STORAGE =     5024091.5000
       CONSTANT HEAD =           0.0000         CONSTANT HEAD =           0.0000
       RIVER LEAKAGE =      541591.9375         RIVER LEAKAGE =        8016.3906
            RECHARGE =           0.0000              RECHARGE =           0.0000

           TOTAL OUT =   324920000.0000             TOTAL OUT =     5032108.0000

            IN - OUT =      -42176.0000              IN - OUT =       -1459.0000

 PERCENT DISCREPANCY =          -0.01     PERCENT DISCREPANCY =          -0.03






         TIME SUMMARY AT END OF TIME STEP  108 IN STRESS PERIOD    1
                    SECONDS     MINUTES      HOURS       DAYS        YEARS
                    -----------------------------------------------------------
   TIME STEP LENGTH  86400.      1440.0      24.000      1.0000     2.73785E-03
 STRESS PERIOD TIME 9.33120E+06 1.55520E+05  2592.0      108.00     0.29569    
         TOTAL TIME 9.33120E+06 1.55520E+05  2592.0      108.00     0.29569    
1
 
 SOLVING FOR HEAD 
                                                   Max.-Head-Change                        Max.-Flux-Residual
  Residual-Control   Outer-Iter.   Inner-Iter.     Column Row Layer    Max.-Head-Change    Column Row Layer    Max.-Flux-Residual            L2-New               L2-Old           Solver-Max-Delh
          0                 1           2            40   53     1       0.1637308229E+01      40   53    1       0.1489983395E+06      0.4032741630E+06      0.3889258682E+03      0.1637308229E+01
          0                 2           2            40   53     1      -0.1416121005E+00      47   50    1      -0.1869018325E+05      0.4441746517E+05      0.4032741630E+06     -0.1416121005E+00
          0                 3           2            28   66     1       0.8514872708E-01      47   50    1      -0.9345086896E+03      0.2221155661E+04      0.4441746517E+05      0.8514872708E-01

    ------------------------------------------------
       NWT REQUIRED            3 OUTER ITERATIONS 
       AND A TOTAL OF          6 INNER ITERATIONS.
    ------------------------------------------------

 OUTPUT CONTROL FOR STRESS PERIOD    1   TIME STEP  109
    SAVE HEAD FOR ALL LAYERS
    SAVE DRAWDOWN FOR ALL LAYERS
    SAVE BUDGET
    PRINT BUDGET
 UBDSV1 SAVING "         STORAGE" ON UNIT   9 AT TIME STEP109, STRESS PERIOD   1
 UBDSV2 SAVING "   CONSTANT HEAD" ON UNIT   9 AT TIME STEP109, STRESS PERIOD   1
 UBDSV1 SAVING "FLOW RIGHT FACE " ON UNIT   9 AT TIME STEP109, STRESS PERIOD   1
 UBDSV1 SAVING "FLOW FRONT FACE " ON UNIT   9 AT TIME STEP109, STRESS PERIOD   1
 UBDSV4 SAVING "   RIVER LEAKAGE" ON UNIT   9 AT TIME STEP109, STRESS PERIOD   1
 UBDSV3 SAVING "        RECHARGE" ON UNIT   9 AT TIME STEP109, STRESS PERIOD   1

 HEAD WILL BE SAVED ON UNIT   37 AT END OF TIME STEP  109, STRESS PERIOD    1

 DRAWDOWN WILL BE SAVED ON UNIT   38 AT END OF TIME STEP  109, STRESS PERIOD    1
1
  VOLUMETRIC BUDGET FOR ENTIRE MODEL AT END OF TIME STEP  109, STRESS PERIOD   1
  ------------------------------------------------------------------------------

     CUMULATIVE VOLUMES      L**3       RATES FOR THIS TIME STEP      L**3/T
     ------------------                 ------------------------

           IN:                                      IN:
           ---                                      ---
             STORAGE =    99633456.0000               STORAGE =      869645.5625
       CONSTANT HEAD =           0.0000         CONSTANT HEAD =           0.0000
       RIVER LEAKAGE =   229374480.0000         RIVER LEAKAGE =     3435335.7500
            RECHARGE =      174859.3438              RECHARGE =       2.8469E-10

            TOTAL IN =   329182784.0000              TOTAL IN =     4304981.5000

          OUT:                                     OUT:
          ----                                     ----
             STORAGE =   328676224.0000               STORAGE =     4297839.5000
       CONSTANT HEAD =           0.0000         CONSTANT HEAD =           0.0000
       RIVER LEAKAGE =      549617.6250         RIVER LEAKAGE =        8025.6973
            RECHARGE =           0.0000              RECHARGE =           0.0000

           TOTAL OUT =   329225856.0000             TOTAL OUT =     4305865.0000

            IN - OUT =      -43072.0000              IN - OUT =        -883.5000

 PERCENT DISCREPANCY =          -0.01     PERCENT DISCREPANCY =          -0.02






         TIME SUMMARY AT END OF TIME STEP  109 IN STRESS PERIOD    1
                    SECONDS     MINUTES      HOURS       DAYS        YEARS
                    -----------------------------------------------------------
   TIME STEP LENGTH  86400.      1440.0      24.000      1.0000     2.73785E-03
 STRESS PERIOD TIME 9.41760E+06 1.56960E+05  2616.0      109.00     0.29843    
         TOTAL TIME 9.41760E+06 1.56960E+05  2616.0      109.00     0.29843    
1
 
 SOLVING FOR HEAD 
                                                   Max.-Head-Change                        Max.-Flux-Residual
  Residual-Control   Outer-Iter.   Inner-Iter.     Column Row Layer    Max.-Head-Change    Column Row Layer    Max.-Flux-Residual            L2-New               L2-Old           Solver-Max-Delh
          0                 1           2            40   53     1       0.1637061039E+01      40   53    1       0.1489980204E+06      0.3881800024E+06      0.1111150522E+03      0.1637061039E+01
          0                 2           2            40   53     1      -0.1415906583E+00      40   53    1      -0.1492661659E+05      0.3886046472E+05      0.3881800024E+06     -0.1415906583E+00
          0                 3           2            28   66     1       0.8552147467E-01      40   53    1      -0.7465310402E+03      0.1943344338E+04      0.3886046472E+05      0.8552147467E-01

    ------------------------------------------------
       NWT REQUIRED            3 OUTER ITERATIONS 
       AND A TOTAL OF          6 INNER ITERATIONS.
    ------------------------------------------------

 OUTPUT CONTROL FOR STRESS PERIOD    1   TIME STEP  110
    SAVE HEAD FOR ALL LAYERS
    SAVE DRAWDOWN FOR ALL LAYERS
    SAVE BUDGET
    PRINT BUDGET
 UBDSV1 SAVING "         STORAGE" ON UNIT   9 AT TIME STEP110, STRESS PERIOD   1
 UBDSV2 SAVING "   CONSTANT HEAD" ON UNIT   9 AT TIME STEP110, STRESS PERIOD   1
 UBDSV1 SAVING "FLOW RIGHT FACE " ON UNIT   9 AT TIME STEP110, STRESS PERIOD   1
 UBDSV1 SAVING "FLOW FRONT FACE " ON UNIT   9 AT TIME STEP110, STRESS PERIOD   1
 UBDSV4 SAVING "   RIVER LEAKAGE" ON UNIT   9 AT TIME STEP110, STRESS PERIOD   1
 UBDSV3 SAVING "        RECHARGE" ON UNIT   9 AT TIME STEP110, STRESS PERIOD   1

 HEAD WILL BE SAVED ON UNIT   37 AT END OF TIME STEP  110, STRESS PERIOD    1

 DRAWDOWN WILL BE SAVED ON UNIT   38 AT END OF TIME STEP  110, STRESS PERIOD    1
1
  VOLUMETRIC BUDGET FOR ENTIRE MODEL AT END OF TIME STEP  110, STRESS PERIOD   1
  ------------------------------------------------------------------------------

     CUMULATIVE VOLUMES      L**3       RATES FOR THIS TIME STEP      L**3/T
     ------------------                 ------------------------

           IN:                                      IN:
           ---                                      ---
             STORAGE =   100504104.0000               STORAGE =      870648.6875
       CONSTANT HEAD =           0.0000         CONSTANT HEAD =           0.0000
       RIVER LEAKAGE =   232318368.0000         RIVER LEAKAGE =     2943885.7500
            RECHARGE =      174859.3438              RECHARGE =       2.2769E-10

            TOTAL IN =   332997344.0000              TOTAL IN =     3814534.5000

          OUT:                                     OUT:
          ----                                     ----
             STORAGE =   332483424.0000               STORAGE =     3807210.2500
       CONSTANT HEAD =           0.0000         CONSTANT HEAD =           0.0000
       RIVER LEAKAGE =      557660.1875         RIVER LEAKAGE =        8042.5869
            RECHARGE =           0.0000              RECHARGE =           0.0000

           TOTAL OUT =   333041088.0000             TOTAL OUT =     3815252.7500

            IN - OUT =      -43744.0000              IN - OUT =        -718.2500

 PERCENT DISCREPANCY =          -0.01     PERCENT DISCREPANCY =          -0.02






         TIME SUMMARY AT END OF TIME STEP  110 IN STRESS PERIOD    1
                    SECONDS     MINUTES      HOURS       DAYS        YEARS
                    -----------------------------------------------------------
   TIME STEP LENGTH  86400.      1440.0      24.000      1.0000     2.73785E-03
 STRESS PERIOD TIME 9.50400E+06 1.58400E+05  2640.0      110.00     0.30116    
         TOTAL TIME 9.50400E+06 1.58400E+05  2640.0      110.00     0.30116    
1
 
 SOLVING FOR HEAD 
                                                   Max.-Head-Change                        Max.-Flux-Residual
  Residual-Control   Outer-Iter.   Inner-Iter.     Column Row Layer    Max.-Head-Change    Column Row Layer    Max.-Flux-Residual            L2-New               L2-Old           Solver-Max-Delh
          0                 1           2            40   53     1       0.1636813327E+01      40   53    1       0.1489976477E+06      0.3818729015E+06      0.9723897464E+02      0.1636813327E+01
          0                 2           2            40   53     1      -0.1415691712E+00      40   53    1      -0.1492657121E+05      0.3823035872E+05      0.3818729015E+06     -0.1415691712E+00
          0                 3           2            28   66     1       0.8588494659E-01      40   53    1      -0.7465287104E+03      0.1911843653E+04      0.3823035872E+05      0.8588494659E-01

    ------------------------------------------------
       NWT REQUIRED            3 OUTER ITERATIONS 
       AND A TOTAL OF          6 INNER ITERATIONS.
    ------------------------------------------------

 OUTPUT CONTROL FOR STRESS PERIOD    1   TIME STEP  111
    SAVE HEAD FOR ALL LAYERS
    SAVE DRAWDOWN FOR ALL LAYERS
    SAVE BUDGET
    PRINT BUDGET
 UBDSV1 SAVING "         STORAGE" ON UNIT   9 AT TIME STEP111, STRESS PERIOD   1
 UBDSV2 SAVING "   CONSTANT HEAD" ON UNIT   9 AT TIME STEP111, STRESS PERIOD   1
 UBDSV1 SAVING "FLOW RIGHT FACE " ON UNIT   9 AT TIME STEP111, STRESS PERIOD   1
 UBDSV1 SAVING "FLOW FRONT FACE " ON UNIT   9 AT TIME STEP111, STRESS PERIOD   1
 UBDSV4 SAVING "   RIVER LEAKAGE" ON UNIT   9 AT TIME STEP111, STRESS PERIOD   1
 UBDSV3 SAVING "        RECHARGE" ON UNIT   9 AT TIME STEP111, STRESS PERIOD   1

 HEAD WILL BE SAVED ON UNIT   37 AT END OF TIME STEP  111, STRESS PERIOD    1

 DRAWDOWN WILL BE SAVED ON UNIT   38 AT END OF TIME STEP  111, STRESS PERIOD    1
1
  VOLUMETRIC BUDGET FOR ENTIRE MODEL AT END OF TIME STEP  111, STRESS PERIOD   1
  ------------------------------------------------------------------------------

     CUMULATIVE VOLUMES      L**3       RATES FOR THIS TIME STEP      L**3/T
     ------------------                 ------------------------

           IN:                                      IN:
           ---                                      ---
             STORAGE =   101375568.0000               STORAGE =      871466.8750
       CONSTANT HEAD =           0.0000         CONSTANT HEAD =           0.0000
       RIVER LEAKAGE =   234960384.0000         RIVER LEAKAGE =     2642015.0000
            RECHARGE =      174859.3438              RECHARGE =       1.8211E-10

            TOTAL IN =   336510816.0000              TOTAL IN =     3513482.0000

          OUT:                                     OUT:
          ----                                     ----
             STORAGE =   335989504.0000               STORAGE =     3506076.7500
       CONSTANT HEAD =           0.0000         CONSTANT HEAD =           0.0000
       RIVER LEAKAGE =      565708.6875         RIVER LEAKAGE =        8048.4717
            RECHARGE =           0.0000              RECHARGE =           0.0000

           TOTAL OUT =   336555200.0000             TOTAL OUT =     3514125.2500

            IN - OUT =      -44384.0000              IN - OUT =        -643.2500

 PERCENT DISCREPANCY =          -0.01     PERCENT DISCREPANCY =          -0.02






         TIME SUMMARY AT END OF TIME STEP  111 IN STRESS PERIOD    1
                    SECONDS     MINUTES      HOURS       DAYS        YEARS
                    -----------------------------------------------------------
   TIME STEP LENGTH  86400.      1440.0      24.000      1.0000     2.73785E-03
 STRESS PERIOD TIME 9.59040E+06 1.59840E+05  2664.0      111.00     0.30390    
         TOTAL TIME 9.59040E+06 1.59840E+05  2664.0      111.00     0.30390    
1
 
 SOLVING FOR HEAD 
                                                   Max.-Head-Change                        Max.-Flux-Residual
  Residual-Control   Outer-Iter.   Inner-Iter.     Column Row Layer    Max.-Head-Change    Column Row Layer    Max.-Flux-Residual            L2-New               L2-Old           Solver-Max-Delh
          0                 1           2            40   53     1       0.1636565828E+01      40   53    1       0.1489972810E+06      0.3788704986E+06      0.9566607760E+02      0.1636565828E+01
          0                 2           2            40   53     1      -0.1415477024E+00      40   53    1      -0.1492652644E+05      0.3793042617E+05      0.3788704986E+06     -0.1415477024E+00
          0                 3           2            28   66     1       0.8623914489E-01      40   53    1      -0.7465264108E+03      0.1896849382E+04      0.3793042617E+05      0.8623914489E-01

    ------------------------------------------------
       NWT REQUIRED            3 OUTER ITERATIONS 
       AND A TOTAL OF          6 INNER ITERATIONS.
    ------------------------------------------------

 OUTPUT CONTROL FOR STRESS PERIOD    1   TIME STEP  112
    SAVE HEAD FOR ALL LAYERS
    SAVE DRAWDOWN FOR ALL LAYERS
    SAVE BUDGET
    PRINT BUDGET
 UBDSV1 SAVING "         STORAGE" ON UNIT   9 AT TIME STEP112, STRESS PERIOD   1
 UBDSV2 SAVING "   CONSTANT HEAD" ON UNIT   9 AT TIME STEP112, STRESS PERIOD   1
 UBDSV1 SAVING "FLOW RIGHT FACE " ON UNIT   9 AT TIME STEP112, STRESS PERIOD   1
 UBDSV1 SAVING "FLOW FRONT FACE " ON UNIT   9 AT TIME STEP112, STRESS PERIOD   1
 UBDSV4 SAVING "   RIVER LEAKAGE" ON UNIT   9 AT TIME STEP112, STRESS PERIOD   1
 UBDSV3 SAVING "        RECHARGE" ON UNIT   9 AT TIME STEP112, STRESS PERIOD   1

 HEAD WILL BE SAVED ON UNIT   37 AT END OF TIME STEP  112, STRESS PERIOD    1

 DRAWDOWN WILL BE SAVED ON UNIT   38 AT END OF TIME STEP  112, STRESS PERIOD    1
1
  VOLUMETRIC BUDGET FOR ENTIRE MODEL AT END OF TIME STEP  112, STRESS PERIOD   1
  ------------------------------------------------------------------------------

     CUMULATIVE VOLUMES      L**3       RATES FOR THIS TIME STEP      L**3/T
     ------------------                 ------------------------

           IN:                                      IN:
           ---                                      ---
             STORAGE =   102249856.0000               STORAGE =      874285.1250
       CONSTANT HEAD =           0.0000         CONSTANT HEAD =           0.0000
       RIVER LEAKAGE =   237414928.0000         RIVER LEAKAGE =     2454541.2500
            RECHARGE =      174859.3438              RECHARGE =       1.4566E-10

            TOTAL IN =   339839648.0000              TOTAL IN =     3328826.5000

          OUT:                                     OUT:
          ----                                     ----
             STORAGE =   339310880.0000               STORAGE =     3321376.5000
       CONSTANT HEAD =           0.0000         CONSTANT HEAD =           0.0000
       RIVER LEAKAGE =      573757.2500         RIVER LEAKAGE =        8048.5659
            RECHARGE =           0.0000              RECHARGE =           0.0000

           TOTAL OUT =   339884640.0000             TOTAL OUT =     3329425.0000

            IN - OUT =      -44992.0000              IN - OUT =        -598.5000

 PERCENT DISCREPANCY =          -0.01     PERCENT DISCREPANCY =          -0.02






         TIME SUMMARY AT END OF TIME STEP  112 IN STRESS PERIOD    1
                    SECONDS     MINUTES      HOURS       DAYS        YEARS
                    -----------------------------------------------------------
   TIME STEP LENGTH  86400.      1440.0      24.000      1.0000     2.73785E-03
 STRESS PERIOD TIME 9.67680E+06 1.61280E+05  2688.0      112.00     0.30664    
         TOTAL TIME 9.67680E+06 1.61280E+05  2688.0      112.00     0.30664    
1
 
 SOLVING FOR HEAD 
                                                   Max.-Head-Change                        Max.-Flux-Residual
  Residual-Control   Outer-Iter.   Inner-Iter.     Column Row Layer    Max.-Head-Change    Column Row Layer    Max.-Flux-Residual            L2-New               L2-Old           Solver-Max-Delh
          0                 1           2            40   53     1       0.1636317711E+01      40   53    1       0.1489968519E+06      0.3770961842E+06      0.9491755910E+02      0.1636317711E+01
          0                 2           2            40   53     1      -0.1415261801E+00      40   53    1      -0.1492647539E+05      0.3775318047E+05      0.3770961842E+06     -0.1415261801E+00
          0                 3           2            28   66     1       0.8658406069E-01      40   53    1      -0.7465237976E+03      0.1887988525E+04      0.3775318047E+05      0.8658406069E-01

    ------------------------------------------------
       NWT REQUIRED            3 OUTER ITERATIONS 
       AND A TOTAL OF          6 INNER ITERATIONS.
    ------------------------------------------------

 OUTPUT CONTROL FOR STRESS PERIOD    1   TIME STEP  113
    SAVE HEAD FOR ALL LAYERS
    SAVE DRAWDOWN FOR ALL LAYERS
    SAVE BUDGET
    PRINT BUDGET
 UBDSV1 SAVING "         STORAGE" ON UNIT   9 AT TIME STEP113, STRESS PERIOD   1
 UBDSV2 SAVING "   CONSTANT HEAD" ON UNIT   9 AT TIME STEP113, STRESS PERIOD   1
 UBDSV1 SAVING "FLOW RIGHT FACE " ON UNIT   9 AT TIME STEP113, STRESS PERIOD   1
 UBDSV1 SAVING "FLOW FRONT FACE " ON UNIT   9 AT TIME STEP113, STRESS PERIOD   1
 UBDSV4 SAVING "   RIVER LEAKAGE" ON UNIT   9 AT TIME STEP113, STRESS PERIOD   1
 UBDSV3 SAVING "        RECHARGE" ON UNIT   9 AT TIME STEP113, STRESS PERIOD   1

 HEAD WILL BE SAVED ON UNIT   37 AT END OF TIME STEP  113, STRESS PERIOD    1

 DRAWDOWN WILL BE SAVED ON UNIT   38 AT END OF TIME STEP  113, STRESS PERIOD    1
1
  VOLUMETRIC BUDGET FOR ENTIRE MODEL AT END OF TIME STEP  113, STRESS PERIOD   1
  ------------------------------------------------------------------------------

     CUMULATIVE VOLUMES      L**3       RATES FOR THIS TIME STEP      L**3/T
     ------------------                 ------------------------

           IN:                                      IN:
           ---                                      ---
             STORAGE =   103126968.0000               STORAGE =      877112.0000
       CONSTANT HEAD =           0.0000         CONSTANT HEAD =           0.0000
       RIVER LEAKAGE =   239741856.0000         RIVER LEAKAGE =     2326935.2500
            RECHARGE =      174859.3438              RECHARGE =       1.1650E-10

            TOTAL IN =   343043680.0000              TOTAL IN =     3204047.2500

          OUT:                                     OUT:
          ----                                     ----
             STORAGE =   342507456.0000               STORAGE =     3196565.2500
       CONSTANT HEAD =           0.0000         CONSTANT HEAD =           0.0000
       RIVER LEAKAGE =      581807.8125         RIVER LEAKAGE =        8050.5874
            RECHARGE =           0.0000              RECHARGE =           0.0000

           TOTAL OUT =   343089248.0000             TOTAL OUT =     3204615.7500

            IN - OUT =      -45568.0000              IN - OUT =        -568.5000

 PERCENT DISCREPANCY =          -0.01     PERCENT DISCREPANCY =          -0.02






         TIME SUMMARY AT END OF TIME STEP  113 IN STRESS PERIOD    1
                    SECONDS     MINUTES      HOURS       DAYS        YEARS
                    -----------------------------------------------------------
   TIME STEP LENGTH  86400.      1440.0      24.000      1.0000     2.73785E-03
 STRESS PERIOD TIME 9.76320E+06 1.62720E+05  2712.0      113.00     0.30938    
         TOTAL TIME 9.76320E+06 1.62720E+05  2712.0      113.00     0.30938    
1
 
 SOLVING FOR HEAD 
                                                   Max.-Head-Change                        Max.-Flux-Residual
  Residual-Control   Outer-Iter.   Inner-Iter.     Column Row Layer    Max.-Head-Change    Column Row Layer    Max.-Flux-Residual            L2-New               L2-Old           Solver-Max-Delh
          0                 1           2            43   60     1       0.1695209818E+01      26  115    1       0.4709457328E+06      0.1476024605E+07      0.9447535876E+02      0.1695209818E+01
          0                 2           2            40   69     1      -0.3944277987E+00      40   69    1      -0.6146408314E+05      0.1592901206E+06      0.1476024605E+07     -0.3944277987E+00
          0                 3           2            28   66     1       0.8691970163E-01      40   69    1      -0.3073202625E+04      0.7964688567E+04      0.1592901206E+06      0.8691970163E-01

    ------------------------------------------------
       NWT REQUIRED            3 OUTER ITERATIONS 
       AND A TOTAL OF          6 INNER ITERATIONS.
    ------------------------------------------------

 OUTPUT CONTROL FOR STRESS PERIOD    1   TIME STEP  114
    SAVE HEAD FOR ALL LAYERS
    SAVE DRAWDOWN FOR ALL LAYERS
    SAVE BUDGET
    PRINT BUDGET
 UBDSV1 SAVING "         STORAGE" ON UNIT   9 AT TIME STEP114, STRESS PERIOD   1
 UBDSV2 SAVING "   CONSTANT HEAD" ON UNIT   9 AT TIME STEP114, STRESS PERIOD   1
 UBDSV1 SAVING "FLOW RIGHT FACE " ON UNIT   9 AT TIME STEP114, STRESS PERIOD   1
 UBDSV1 SAVING "FLOW FRONT FACE " ON UNIT   9 AT TIME STEP114, STRESS PERIOD   1
 UBDSV4 SAVING "   RIVER LEAKAGE" ON UNIT   9 AT TIME STEP114, STRESS PERIOD   1
 UBDSV3 SAVING "        RECHARGE" ON UNIT   9 AT TIME STEP114, STRESS PERIOD   1

 HEAD WILL BE SAVED ON UNIT   37 AT END OF TIME STEP  114, STRESS PERIOD    1

 DRAWDOWN WILL BE SAVED ON UNIT   38 AT END OF TIME STEP  114, STRESS PERIOD    1
1
  VOLUMETRIC BUDGET FOR ENTIRE MODEL AT END OF TIME STEP  114, STRESS PERIOD   1
  ------------------------------------------------------------------------------

     CUMULATIVE VOLUMES      L**3       RATES FOR THIS TIME STEP      L**3/T
     ------------------                 ------------------------

           IN:                                      IN:
           ---                                      ---
             STORAGE =   103992504.0000               STORAGE =      865539.1250
       CONSTANT HEAD =           0.0000         CONSTANT HEAD =           0.0000
       RIVER LEAKAGE =   254538848.0000         RIVER LEAKAGE =    14797000.0000
            RECHARGE =      174859.3438              RECHARGE =       9.3184E-11

            TOTAL IN =   358706208.0000              TOTAL IN =    15662539.0000

          OUT:                                     OUT:
          ----                                     ----
             STORAGE =   358165888.0000               STORAGE =    15658434.0000
       CONSTANT HEAD =           0.0000         CONSTANT HEAD =           0.0000
       RIVER LEAKAGE =      589864.2500         RIVER LEAKAGE =        8056.4307
            RECHARGE =           0.0000              RECHARGE =           0.0000

           TOTAL OUT =   358755744.0000             TOTAL OUT =    15666490.0000

            IN - OUT =      -49536.0000              IN - OUT =       -3951.0000

 PERCENT DISCREPANCY =          -0.01     PERCENT DISCREPANCY =          -0.03






         TIME SUMMARY AT END OF TIME STEP  114 IN STRESS PERIOD    1
                    SECONDS     MINUTES      HOURS       DAYS        YEARS
                    -----------------------------------------------------------
   TIME STEP LENGTH  86400.      1440.0      24.000      1.0000     2.73785E-03
 STRESS PERIOD TIME 9.84960E+06 1.64160E+05  2736.0      114.00     0.31211    
         TOTAL TIME 9.84960E+06 1.64160E+05  2736.0      114.00     0.31211    
1
 
 SOLVING FOR HEAD 
                                                   Max.-Head-Change                        Max.-Flux-Residual
  Residual-Control   Outer-Iter.   Inner-Iter.     Column Row Layer    Max.-Head-Change    Column Row Layer    Max.-Flux-Residual            L2-New               L2-Old           Solver-Max-Delh
          0                 1           2            50   39     1       0.1458247849E+01      43   59    1      -0.2149135854E+06      0.7938876080E+06      0.3981782860E+03      0.1458247849E+01
          0                 2           2            50   39     1      -0.7535215709E+00      50   39    1      -0.2630813531E+06      0.2744814107E+06      0.7938876080E+06     -0.7535215709E+00
          0                 3           2            28   66     1       0.8724606857E-01      50   39    1      -0.1315406106E+05      0.1372409281E+05      0.2744814107E+06      0.8724606857E-01
          0                 4           2            28   66     1       0.8709256046E-01      50   39    1      -0.6575711790E+03      0.6860808115E+03      0.1372409281E+05      0.8709256046E-01

    ------------------------------------------------
       NWT REQUIRED            4 OUTER ITERATIONS 
       AND A TOTAL OF          8 INNER ITERATIONS.
    ------------------------------------------------

 OUTPUT CONTROL FOR STRESS PERIOD    1   TIME STEP  115
    SAVE HEAD FOR ALL LAYERS
    SAVE DRAWDOWN FOR ALL LAYERS
    SAVE BUDGET
    PRINT BUDGET
 UBDSV1 SAVING "         STORAGE" ON UNIT   9 AT TIME STEP115, STRESS PERIOD   1
 UBDSV2 SAVING "   CONSTANT HEAD" ON UNIT   9 AT TIME STEP115, STRESS PERIOD   1
 UBDSV1 SAVING "FLOW RIGHT FACE " ON UNIT   9 AT TIME STEP115, STRESS PERIOD   1
 UBDSV1 SAVING "FLOW FRONT FACE " ON UNIT   9 AT TIME STEP115, STRESS PERIOD   1
 UBDSV4 SAVING "   RIVER LEAKAGE" ON UNIT   9 AT TIME STEP115, STRESS PERIOD   1
 UBDSV3 SAVING "        RECHARGE" ON UNIT   9 AT TIME STEP115, STRESS PERIOD   1

 HEAD WILL BE SAVED ON UNIT   37 AT END OF TIME STEP  115, STRESS PERIOD    1

 DRAWDOWN WILL BE SAVED ON UNIT   38 AT END OF TIME STEP  115, STRESS PERIOD    1
1
  VOLUMETRIC BUDGET FOR ENTIRE MODEL AT END OF TIME STEP  115, STRESS PERIOD   1
  ------------------------------------------------------------------------------

     CUMULATIVE VOLUMES      L**3       RATES FOR THIS TIME STEP      L**3/T
     ------------------                 ------------------------

           IN:                                      IN:
           ---                                      ---
             STORAGE =   104857464.0000               STORAGE =      864959.6875
       CONSTANT HEAD =           0.0000         CONSTANT HEAD =           0.0000
       RIVER LEAKAGE =   262878064.0000         RIVER LEAKAGE =     8339211.5000
            RECHARGE =      174859.3438              RECHARGE =       7.4535E-11

            TOTAL IN =   367910400.0000              TOTAL IN =     9204171.0000

          OUT:                                     OUT:
          ----                                     ----
             STORAGE =   367361600.0000               STORAGE =     9195717.0000
       CONSTANT HEAD =           0.0000         CONSTANT HEAD =           0.0000
       RIVER LEAKAGE =      598441.1875         RIVER LEAKAGE =        8576.9629
            RECHARGE =           0.0000              RECHARGE =           0.0000

           TOTAL OUT =   367960032.0000             TOTAL OUT =     9204294.0000

            IN - OUT =      -49632.0000              IN - OUT =        -123.0000

 PERCENT DISCREPANCY =          -0.01     PERCENT DISCREPANCY =          -0.00






         TIME SUMMARY AT END OF TIME STEP  115 IN STRESS PERIOD    1
                    SECONDS     MINUTES      HOURS       DAYS        YEARS
                    -----------------------------------------------------------
   TIME STEP LENGTH  86400.      1440.0      24.000      1.0000     2.73785E-03
 STRESS PERIOD TIME 9.93600E+06 1.65600E+05  2760.0      115.00     0.31485    
         TOTAL TIME 9.93600E+06 1.65600E+05  2760.0      115.00     0.31485    
1
 
 SOLVING FOR HEAD 
                                                   Max.-Head-Change                        Max.-Flux-Residual
  Residual-Control   Outer-Iter.   Inner-Iter.     Column Row Layer    Max.-Head-Change    Column Row Layer    Max.-Flux-Residual            L2-New               L2-Old           Solver-Max-Delh
          0                 1           2            38   71     1      -0.5474174298E+00      43   59    1      -0.1193466482E+06      0.4555461780E+06      0.3456130655E+02     -0.5474174298E+00
          0                 2           2            49   46     1       0.2834434045E+02      43   59    1       0.1193466500E+05      0.4575147800E+05      0.4555461780E+06      0.2834434045E+02
          1                 2           0            49   46     1       0.1984103797E+02      49   46    1      -0.2765159410E+07      0.2765160348E+07      0.4575147800E+05      0.2834434045E+02
          2                 2           0            49   46     1       0.1388872635E+02      49   46    1      -0.1933050383E+07      0.1933110570E+07      0.2765160348E+07      0.2834434045E+02
          3                 2           0            49   46     1       0.9722108276E+01      49   46    1      -0.1350574074E+07      0.1350793357E+07      0.1933110570E+07      0.2834434045E+02
          4                 2           0            49   46     1       0.6805475678E+01      49   46    1      -0.9428406642E+06      0.9433402652E+06      0.1350793357E+07      0.2834434045E+02
          5                 2           0            49   46     1       0.4763832893E+01      49   46    1      -0.6574272824E+06      0.6583662132E+06      0.9433402652E+06      0.2834434045E+02
          6                 2           0            49   46     1       0.3334682968E+01      49   46    1      -0.4576379186E+06      0.4592348560E+06      0.6583662132E+06      0.2834434045E+02
          7                 2           0            49   46     1       0.2334278038E+01      49   46    1      -0.3177853662E+06      0.3203488811E+06      0.4592348560E+06      0.2834434045E+02
          8                 2           0            49   46     1       0.1633994599E+01      49   46    1      -0.2198885813E+06      0.2238586401E+06      0.3203488811E+06      0.2834434045E+02
                                                   Max.-Head-Change                        Max.-Flux-Residual
  Residual-Control   Outer-Iter.   Inner-Iter.     Column Row Layer    Max.-Head-Change    Column Row Layer    Max.-Flux-Residual            L2-New               L2-Old           Solver-Max-Delh
          9                 2           0            49   46     1       0.1143796200E+01      49   46    1      -0.1513608330E+06      0.1573615693E+06      0.2238586401E+06      0.2834434045E+02
         10                 2           0            49   46     1       0.8006573262E+00      49   46    1      -0.1033914100E+06      0.1122822606E+06      0.1573615693E+06      0.2834434045E+02
         11                 2           0            49   46     1       0.5604601188E+00      49   46    1      -0.6981281448E+05      0.8268911640E+05      0.1122822606E+06      0.2834434045E+02
         12                 2           0            49   46     1       0.3923220765E+00      49   46    1      -0.4630779801E+05      0.6434824302E+05      0.8268911640E+05      0.2834434045E+02
         13                 2           0            49   46     1       0.2746254489E+00      49   46    1      -0.2985428676E+05      0.5394959591E+05      0.6434824302E+05      0.2834434045E+02
          0                 3           2            49   46     1      -0.1780144624E+00      49   46    1      -0.1833682909E+05      0.4870005633E+05      0.5394959591E+05     -0.1780144624E+00
          0                 4           2            28   66     1       0.8740821792E-01      49   46    1      -0.9168409897E+03      0.2434592277E+04      0.4870005633E+05      0.8740821792E-01

    ------------------------------------------------
       NWT REQUIRED            4 OUTER ITERATIONS 
       AND A TOTAL OF          8 INNER ITERATIONS.
    ------------------------------------------------

 OUTPUT CONTROL FOR STRESS PERIOD    1   TIME STEP  116
    SAVE HEAD FOR ALL LAYERS
    SAVE DRAWDOWN FOR ALL LAYERS
    SAVE BUDGET
    PRINT BUDGET
 UBDSV1 SAVING "         STORAGE" ON UNIT   9 AT TIME STEP116, STRESS PERIOD   1
 UBDSV2 SAVING "   CONSTANT HEAD" ON UNIT   9 AT TIME STEP116, STRESS PERIOD   1
 UBDSV1 SAVING "FLOW RIGHT FACE " ON UNIT   9 AT TIME STEP116, STRESS PERIOD   1
 UBDSV1 SAVING "FLOW FRONT FACE " ON UNIT   9 AT TIME STEP116, STRESS PERIOD   1
 UBDSV4 SAVING "   RIVER LEAKAGE" ON UNIT   9 AT TIME STEP116, STRESS PERIOD   1
 UBDSV3 SAVING "        RECHARGE" ON UNIT   9 AT TIME STEP116, STRESS PERIOD   1

 HEAD WILL BE SAVED ON UNIT   37 AT END OF TIME STEP  116, STRESS PERIOD    1

 DRAWDOWN WILL BE SAVED ON UNIT   38 AT END OF TIME STEP  116, STRESS PERIOD    1
1
  VOLUMETRIC BUDGET FOR ENTIRE MODEL AT END OF TIME STEP  116, STRESS PERIOD   1
  ------------------------------------------------------------------------------

     CUMULATIVE VOLUMES      L**3       RATES FOR THIS TIME STEP      L**3/T
     ------------------                 ------------------------

           IN:                                      IN:
           ---                                      ---
             STORAGE =   105722056.0000               STORAGE =      864589.1250
       CONSTANT HEAD =           0.0000         CONSTANT HEAD =           0.0000
       RIVER LEAKAGE =   266995376.0000         RIVER LEAKAGE =     4117314.0000
            RECHARGE =      174859.3438              RECHARGE =       5.9619E-11

            TOTAL IN =   372892288.0000              TOTAL IN =     4981903.0000

          OUT:                                     OUT:
          ----                                     ----
             STORAGE =   372335616.0000               STORAGE =     4974001.0000
       CONSTANT HEAD =           0.0000         CONSTANT HEAD =           0.0000
       RIVER LEAKAGE =      607269.5000         RIVER LEAKAGE =        8828.3262
            RECHARGE =           0.0000              RECHARGE =           0.0000

           TOTAL OUT =   372942880.0000             TOTAL OUT =     4982829.5000

            IN - OUT =      -50592.0000              IN - OUT =        -926.5000

 PERCENT DISCREPANCY =          -0.01     PERCENT DISCREPANCY =          -0.02






         TIME SUMMARY AT END OF TIME STEP  116 IN STRESS PERIOD    1
                    SECONDS     MINUTES      HOURS       DAYS        YEARS
                    -----------------------------------------------------------
   TIME STEP LENGTH  86400.      1440.0      24.000      1.0000     2.73785E-03
 STRESS PERIOD TIME 1.00224E+07 1.67040E+05  2784.0      116.00     0.31759    
         TOTAL TIME 1.00224E+07 1.67040E+05  2784.0      116.00     0.31759    
1
 
 SOLVING FOR HEAD 
                                                   Max.-Head-Change                        Max.-Flux-Residual
  Residual-Control   Outer-Iter.   Inner-Iter.     Column Row Layer    Max.-Head-Change    Column Row Layer    Max.-Flux-Residual            L2-New               L2-Old           Solver-Max-Delh
          0                 1           2            62   17     1       0.1941627973E+00      36   74    1       0.7278175915E+05      0.2760187582E+06      0.1217615673E+03      0.1941627973E+00
          0                 2           2            28   66     1       0.8787273193E-01      36   74    1      -0.7278254252E+04      0.2760226191E+05      0.2760187582E+06      0.8787273193E-01
          0                 3           2            28   66     1       0.8771555728E-01      36   74    1      -0.3639131116E+03      0.1380122142E+04      0.2760226191E+05      0.8771555728E-01

    ------------------------------------------------
       NWT REQUIRED            3 OUTER ITERATIONS 
       AND A TOTAL OF          6 INNER ITERATIONS.
    ------------------------------------------------

 OUTPUT CONTROL FOR STRESS PERIOD    1   TIME STEP  117
    SAVE HEAD FOR ALL LAYERS
    SAVE DRAWDOWN FOR ALL LAYERS
    SAVE BUDGET
    PRINT BUDGET
 UBDSV1 SAVING "         STORAGE" ON UNIT   9 AT TIME STEP117, STRESS PERIOD   1
 UBDSV2 SAVING "   CONSTANT HEAD" ON UNIT   9 AT TIME STEP117, STRESS PERIOD   1
 UBDSV1 SAVING "FLOW RIGHT FACE " ON UNIT   9 AT TIME STEP117, STRESS PERIOD   1
 UBDSV1 SAVING "FLOW FRONT FACE " ON UNIT   9 AT TIME STEP117, STRESS PERIOD   1
 UBDSV4 SAVING "   RIVER LEAKAGE" ON UNIT   9 AT TIME STEP117, STRESS PERIOD   1
 UBDSV3 SAVING "        RECHARGE" ON UNIT   9 AT TIME STEP117, STRESS PERIOD   1

 HEAD WILL BE SAVED ON UNIT   37 AT END OF TIME STEP  117, STRESS PERIOD    1

 DRAWDOWN WILL BE SAVED ON UNIT   38 AT END OF TIME STEP  117, STRESS PERIOD    1
1
  VOLUMETRIC BUDGET FOR ENTIRE MODEL AT END OF TIME STEP  117, STRESS PERIOD   1
  ------------------------------------------------------------------------------

     CUMULATIVE VOLUMES      L**3       RATES FOR THIS TIME STEP      L**3/T
     ------------------                 ------------------------

           IN:                                      IN:
           ---                                      ---
             STORAGE =   106585768.0000               STORAGE =      863713.0625
       CONSTANT HEAD =           0.0000         CONSTANT HEAD =           0.0000
       RIVER LEAKAGE =   269703552.0000         RIVER LEAKAGE =     2708174.7500
            RECHARGE =      174859.3438              RECHARGE =       4.7688E-11

            TOTAL IN =   376464160.0000              TOTAL IN =     3571887.7500

          OUT:                                     OUT:
          ----                                     ----
             STORAGE =   375899616.0000               STORAGE =     3564014.5000
       CONSTANT HEAD =           0.0000         CONSTANT HEAD =           0.0000
       RIVER LEAKAGE =      615793.7500         RIVER LEAKAGE =        8524.2598
            RECHARGE =           0.0000              RECHARGE =           0.0000

           TOTAL OUT =   376515424.0000             TOTAL OUT =     3572538.7500

            IN - OUT =      -51264.0000              IN - OUT =        -651.0000

 PERCENT DISCREPANCY =          -0.01     PERCENT DISCREPANCY =          -0.02






         TIME SUMMARY AT END OF TIME STEP  117 IN STRESS PERIOD    1
                    SECONDS     MINUTES      HOURS       DAYS        YEARS
                    -----------------------------------------------------------
   TIME STEP LENGTH  86400.      1440.0      24.000      1.0000     2.73785E-03
 STRESS PERIOD TIME 1.01088E+07 1.68480E+05  2808.0      117.00     0.32033    
         TOTAL TIME 1.01088E+07 1.68480E+05  2808.0      117.00     0.32033    
1
 
 SOLVING FOR HEAD 
                                                   Max.-Head-Change                        Max.-Flux-Residual
  Residual-Control   Outer-Iter.   Inner-Iter.     Column Row Layer    Max.-Head-Change    Column Row Layer    Max.-Flux-Residual            L2-New               L2-Old           Solver-Max-Delh
          0                 1           2            62   17     1       0.1407978474E+00      14  125    1       0.4366569343E+05      0.1572852480E+06      0.6912872510E+02      0.1407978474E+00
          0                 2           2            28   66     1       0.8817270680E-01      14  125    1      -0.4366610925E+04      0.1572873974E+05      0.1572852480E+06      0.8817270680E-01
          0                 3           2            28   66     1       0.8801365390E-01      14  125    1      -0.2183307452E+03      0.7864501269E+03      0.1572873974E+05      0.8801365390E-01

    ------------------------------------------------
       NWT REQUIRED            3 OUTER ITERATIONS 
       AND A TOTAL OF          6 INNER ITERATIONS.
    ------------------------------------------------

 OUTPUT CONTROL FOR STRESS PERIOD    1   TIME STEP  118
    SAVE HEAD FOR ALL LAYERS
    SAVE DRAWDOWN FOR ALL LAYERS
    SAVE BUDGET
    PRINT BUDGET
 UBDSV1 SAVING "         STORAGE" ON UNIT   9 AT TIME STEP118, STRESS PERIOD   1
 UBDSV2 SAVING "   CONSTANT HEAD" ON UNIT   9 AT TIME STEP118, STRESS PERIOD   1
 UBDSV1 SAVING "FLOW RIGHT FACE " ON UNIT   9 AT TIME STEP118, STRESS PERIOD   1
 UBDSV1 SAVING "FLOW FRONT FACE " ON UNIT   9 AT TIME STEP118, STRESS PERIOD   1
 UBDSV4 SAVING "   RIVER LEAKAGE" ON UNIT   9 AT TIME STEP118, STRESS PERIOD   1
 UBDSV3 SAVING "        RECHARGE" ON UNIT   9 AT TIME STEP118, STRESS PERIOD   1

 HEAD WILL BE SAVED ON UNIT   37 AT END OF TIME STEP  118, STRESS PERIOD    1

 DRAWDOWN WILL BE SAVED ON UNIT   38 AT END OF TIME STEP  118, STRESS PERIOD    1
1
  VOLUMETRIC BUDGET FOR ENTIRE MODEL AT END OF TIME STEP  118, STRESS PERIOD   1
  ------------------------------------------------------------------------------

     CUMULATIVE VOLUMES      L**3       RATES FOR THIS TIME STEP      L**3/T
     ------------------                 ------------------------

           IN:                                      IN:
           ---                                      ---
             STORAGE =   107451568.0000               STORAGE =      865804.0000
       CONSTANT HEAD =           0.0000         CONSTANT HEAD =           0.0000
       RIVER LEAKAGE =   270990816.0000         RIVER LEAKAGE =     1287249.1250
            RECHARGE =      174859.3438              RECHARGE =       3.8146E-11

            TOTAL IN =   378617216.0000              TOTAL IN =     2153053.0000

          OUT:                                     OUT:
          ----                                     ----
             STORAGE =   378044448.0000               STORAGE =     2144827.0000
       CONSTANT HEAD =           0.0000         CONSTANT HEAD =           0.0000
       RIVER LEAKAGE =      624318.6875         RIVER LEAKAGE =        8524.9121
            RECHARGE =           0.0000              RECHARGE =           0.0000

           TOTAL OUT =   378668768.0000             TOTAL OUT =     2153352.0000

            IN - OUT =      -51552.0000              IN - OUT =        -299.0000

 PERCENT DISCREPANCY =          -0.01     PERCENT DISCREPANCY =          -0.01






         TIME SUMMARY AT END OF TIME STEP  118 IN STRESS PERIOD    1
                    SECONDS     MINUTES      HOURS       DAYS        YEARS
                    -----------------------------------------------------------
   TIME STEP LENGTH  86400.      1440.0      24.000      1.0000     2.73785E-03
 STRESS PERIOD TIME 1.01952E+07 1.69920E+05  2832.0      118.00     0.32307    
         TOTAL TIME 1.01952E+07 1.69920E+05  2832.0      118.00     0.32307    
1
 
 SOLVING FOR HEAD 
                                                   Max.-Head-Change                        Max.-Flux-Residual
  Residual-Control   Outer-Iter.   Inner-Iter.     Column Row Layer    Max.-Head-Change    Column Row Layer    Max.-Flux-Residual            L2-New               L2-Old           Solver-Max-Delh
          0                 1           2            36   47     1       0.1667662814E+00      36   74    1       0.5374191624E+05      0.2192357408E+06      0.3955286973E+02      0.1667662814E+00
          0                 2           2            40   53     1       0.3644518576E+02      40   53    1       0.6294811113E+04      0.2277534317E+05      0.2192357408E+06      0.3644518576E+02
          1                 2           0            40   53     1       0.2551162960E+02      40   53    1      -0.4960896667E+07      0.4960896788E+07      0.2277534317E+05      0.3644518576E+02
          2                 2           0            40   53     1       0.1785814041E+02      40   53    1      -0.3469732412E+07      0.3469740160E+07      0.4960896788E+07      0.3644518576E+02
          3                 2           0            40   53     1       0.1250069808E+02      40   53    1      -0.2425917451E+07      0.2425945661E+07      0.3469740160E+07      0.3644518576E+02
          4                 2           0            40   53     1       0.8750488505E+01      40   53    1      -0.1695246991E+07      0.1695311209E+07      0.2425945661E+07      0.3644518576E+02
          5                 2           0            40   53     1       0.6125341849E+01      40   53    1      -0.1183777677E+07      0.1183898243E+07      0.1695311209E+07      0.3644518576E+02
          6                 2           0            40   53     1       0.4287739222E+01      40   53    1      -0.8257491638E+06      0.8259539919E+06      0.1183898243E+07      0.3644518576E+02
          7                 2           0            40   53     1       0.3001417404E+01      40   53    1      -0.5751292086E+06      0.5754577221E+06      0.8259539919E+06      0.3644518576E+02
          8                 2           0            40   53     1       0.2100992147E+01      40   53    1      -0.3996952430E+06      0.4002041307E+06      0.5754577221E+06      0.3644518576E+02
                                                   Max.-Head-Change                        Max.-Flux-Residual
  Residual-Control   Outer-Iter.   Inner-Iter.     Column Row Layer    Max.-Head-Change    Column Row Layer    Max.-Flux-Residual            L2-New               L2-Old           Solver-Max-Delh
          9                 2           0            40   53     1       0.1470694478E+01      40   53    1      -0.2768914691E+06      0.2776633548E+06      0.4002041307E+06      0.3644518576E+02
         10                 2           0            40   53     1       0.1029486117E+01      40   53    1      -0.1909288288E+06      0.1920856071E+06      0.2776633548E+06      0.3644518576E+02
         11                 2           0            40   53     1       0.7206402696E+00      40   53    1      -0.1307549817E+06      0.1324786353E+06      0.1920856071E+06      0.3644518576E+02
         12                 2           0            40   53     1       0.5044481801E+00      40   53    1      -0.8863328939E+05      0.9119825394E+05      0.1324786353E+06      0.3644518576E+02
         13                 2           0            40   53     1       0.3531137201E+00      40   53    1      -0.5914810529E+05      0.6296882892E+05      0.9119825394E+05      0.3644518576E+02
         14                 2           0            40   53     1       0.2471795998E+00      40   53    1      -0.3850847677E+05      0.4419519668E+05      0.6296882892E+05      0.3644518576E+02
         15                 2           0            40   53     1       0.1730257169E+00      40   53    1      -0.2406073705E+05      0.3243234289E+05      0.4419519668E+05      0.3644518576E+02
         16                 2           0            40   53     1       0.1211179998E+00      40   53    1      -0.1394731942E+05      0.2587097763E+05      0.3243234289E+05      0.3644518576E+02
          0                 3           2            28   66     1       0.8846290824E-01      40   53    1      -0.6867927203E+04      0.2287443323E+05      0.2587097763E+05      0.8846290824E-01
          0                 4           2            28   66     1       0.8830198549E-01      40   53    1      -0.3433961895E+03      0.1143523078E+04      0.2287443323E+05      0.8830198549E-01

    ------------------------------------------------
       NWT REQUIRED            4 OUTER ITERATIONS 
       AND A TOTAL OF          8 INNER ITERATIONS.
    ------------------------------------------------

 OUTPUT CONTROL FOR STRESS PERIOD    1   TIME STEP  119
    SAVE HEAD FOR ALL LAYERS
    SAVE DRAWDOWN FOR ALL LAYERS
    SAVE BUDGET
    PRINT BUDGET
 UBDSV1 SAVING "         STORAGE" ON UNIT   9 AT TIME STEP119, STRESS PERIOD   1
 UBDSV2 SAVING "   CONSTANT HEAD" ON UNIT   9 AT TIME STEP119, STRESS PERIOD   1
 UBDSV1 SAVING "FLOW RIGHT FACE " ON UNIT   9 AT TIME STEP119, STRESS PERIOD   1
 UBDSV1 SAVING "FLOW FRONT FACE " ON UNIT   9 AT TIME STEP119, STRESS PERIOD   1
 UBDSV4 SAVING "   RIVER LEAKAGE" ON UNIT   9 AT TIME STEP119, STRESS PERIOD   1
 UBDSV3 SAVING "        RECHARGE" ON UNIT   9 AT TIME STEP119, STRESS PERIOD   1

 HEAD WILL BE SAVED ON UNIT   37 AT END OF TIME STEP  119, STRESS PERIOD    1

 DRAWDOWN WILL BE SAVED ON UNIT   38 AT END OF TIME STEP  119, STRESS PERIOD    1
1
  VOLUMETRIC BUDGET FOR ENTIRE MODEL AT END OF TIME STEP  119, STRESS PERIOD   1
  ------------------------------------------------------------------------------

     CUMULATIVE VOLUMES      L**3       RATES FOR THIS TIME STEP      L**3/T
     ------------------                 ------------------------

           IN:                                      IN:
           ---                                      ---
             STORAGE =   108314112.0000               STORAGE =      862547.0000
       CONSTANT HEAD =           0.0000         CONSTANT HEAD =           0.0000
       RIVER LEAKAGE =   273122944.0000         RIVER LEAKAGE =     2132126.0000
            RECHARGE =      174859.3438              RECHARGE =       3.0514E-11

            TOTAL IN =   381611904.0000              TOTAL IN =     2994673.0000

          OUT:                                     OUT:
          ----                                     ----
             STORAGE =   381031168.0000               STORAGE =     2986721.2500
       CONSTANT HEAD =           0.0000         CONSTANT HEAD =           0.0000
       RIVER LEAKAGE =      632808.5625         RIVER LEAKAGE =        8489.8496
            RECHARGE =           0.0000              RECHARGE =           0.0000

           TOTAL OUT =   381663968.0000             TOTAL OUT =     2995211.0000

            IN - OUT =      -52064.0000              IN - OUT =        -538.0000

 PERCENT DISCREPANCY =          -0.01     PERCENT DISCREPANCY =          -0.02






         TIME SUMMARY AT END OF TIME STEP  119 IN STRESS PERIOD    1
                    SECONDS     MINUTES      HOURS       DAYS        YEARS
                    -----------------------------------------------------------
   TIME STEP LENGTH  86400.      1440.0      24.000      1.0000     2.73785E-03
 STRESS PERIOD TIME 1.02816E+07 1.71360E+05  2856.0      119.00     0.32580    
         TOTAL TIME 1.02816E+07 1.71360E+05  2856.0      119.00     0.32580    
1
 
 SOLVING FOR HEAD 
                                                   Max.-Head-Change                        Max.-Flux-Residual
  Residual-Control   Outer-Iter.   Inner-Iter.     Column Row Layer    Max.-Head-Change    Column Row Layer    Max.-Flux-Residual            L2-New               L2-Old           Solver-Max-Delh
          0                 1           2            36   47     1       0.1667643684E+00      34   98    1       0.1083938008E+06      0.2165224458E+06      0.5731857321E+02      0.1667643684E+00
          0                 2           2            26  115     1       0.3563556619E+02      26  115    1       0.1733529822E+05      0.2753360526E+05      0.2165224458E+06      0.3563556619E+02
          1                 2           0            26  115     1       0.2494489591E+02      26  115    1      -0.2976090889E+08      0.2976090894E+08      0.2753360526E+05      0.3563556619E+02
          2                 2           0            26  115     1       0.1746142684E+02      26  115    1      -0.2080714861E+08      0.2080714985E+08      0.2976090894E+08      0.3563556619E+02
          3                 2           0            26  115     1       0.1222299858E+02      26  115    1      -0.1453968076E+08      0.1453968525E+08      0.2080714985E+08      0.3563556619E+02
          4                 2           0            26  115     1       0.8556098859E+01      26  115    1      -0.1015259321E+08      0.1015260344E+08      0.1453968525E+08      0.3563556619E+02
          5                 2           0            26  115     1       0.5989269099E+01      26  115    1      -0.7081650426E+07      0.7081669664E+07      0.1015260344E+08      0.3563556619E+02
          6                 2           0            26  115     1       0.4192488298E+01      26  115    1      -0.4931990521E+07      0.4932023270E+07      0.7081669664E+07      0.3563556619E+02
          7                 2           0            26  115     1       0.2934741759E+01      26  115    1      -0.3427240376E+07      0.3427293041E+07      0.4932023270E+07      0.3563556619E+02
          8                 2           0            26  115     1       0.2054319196E+01      26  115    1      -0.2373949197E+07      0.2374031078E+07      0.3427293041E+07      0.3563556619E+02
                                                   Max.-Head-Change                        Max.-Flux-Residual
  Residual-Control   Outer-Iter.   Inner-Iter.     Column Row Layer    Max.-Head-Change    Column Row Layer    Max.-Flux-Residual            L2-New               L2-Old           Solver-Max-Delh
          9                 2           0            26  115     1       0.1438023413E+01      26  115    1      -0.1636645386E+07      0.1636770279E+07      0.2374031078E+07      0.3563556619E+02
         10                 2           0            26  115     1       0.1006616372E+01      26  115    1      -0.1120532728E+07      0.1120721536E+07      0.1636770279E+07      0.3563556619E+02
         11                 2           0            26  115     1       0.7046314482E+00      26  115    1      -0.7592538737E+06      0.7595391996E+06      0.1120721536E+07      0.3563556619E+02
         12                 2           0            26  115     1       0.4932420054E+00      26  115    1      -0.5063586803E+06      0.5067935138E+06      0.7595391996E+06      0.3563556619E+02
         13                 2           0            26  115     1       0.3452693979E+00      26  115    1      -0.3293320479E+06      0.3300079191E+06      0.5067935138E+06      0.3563556619E+02
         14                 2           0            26  115     1       0.2416885744E+00      26  115    1      -0.2054134075E+06      0.2065039167E+06      0.3300079191E+06      0.3563556619E+02
         15                 2           0            26  115     1       0.1691819992E+00      26  115    1      -0.1186703606E+06      0.1205585424E+06      0.2065039167E+06      0.3563556619E+02
         16                 2           0            26  115     1       0.1184273974E+00      26  115    1      -0.5795022890E+05      0.6173893789E+05      0.1205585424E+06      0.3563556619E+02
          0                 3           2            28   66     1       0.8874387952E-01      26  115    1      -0.1544613742E+05      0.2633029540E+05      0.6173893789E+05      0.8874387952E-01
          0                 4           2            28   66     1       0.8858109553E-01      26  115    1      -0.7723065770E+03      0.1316350328E+04      0.2633029540E+05      0.8858109553E-01

    ------------------------------------------------
       NWT REQUIRED            4 OUTER ITERATIONS 
       AND A TOTAL OF          8 INNER ITERATIONS.
    ------------------------------------------------

 OUTPUT CONTROL FOR STRESS PERIOD    1   TIME STEP  120
    SAVE HEAD FOR ALL LAYERS
    SAVE DRAWDOWN FOR ALL LAYERS
    SAVE BUDGET
    PRINT BUDGET
 UBDSV1 SAVING "         STORAGE" ON UNIT   9 AT TIME STEP120, STRESS PERIOD   1
 UBDSV2 SAVING "   CONSTANT HEAD" ON UNIT   9 AT TIME STEP120, STRESS PERIOD   1
 UBDSV1 SAVING "FLOW RIGHT FACE " ON UNIT   9 AT TIME STEP120, STRESS PERIOD   1
 UBDSV1 SAVING "FLOW FRONT FACE " ON UNIT   9 AT TIME STEP120, STRESS PERIOD   1
 UBDSV4 SAVING "   RIVER LEAKAGE" ON UNIT   9 AT TIME STEP120, STRESS PERIOD   1
 UBDSV3 SAVING "        RECHARGE" ON UNIT   9 AT TIME STEP120, STRESS PERIOD   1

 HEAD WILL BE SAVED ON UNIT   37 AT END OF TIME STEP  120, STRESS PERIOD    1

 DRAWDOWN WILL BE SAVED ON UNIT   38 AT END OF TIME STEP  120, STRESS PERIOD    1
1
  VOLUMETRIC BUDGET FOR ENTIRE MODEL AT END OF TIME STEP  120, STRESS PERIOD   1
  ------------------------------------------------------------------------------

     CUMULATIVE VOLUMES      L**3       RATES FOR THIS TIME STEP      L**3/T
     ------------------                 ------------------------

           IN:                                      IN:
           ---                                      ---
             STORAGE =   109176920.0000               STORAGE =      862804.1875
       CONSTANT HEAD =           0.0000         CONSTANT HEAD =           0.0000
       RIVER LEAKAGE =   274863488.0000         RIVER LEAKAGE =     1740532.0000
            RECHARGE =      174859.3438              RECHARGE =       2.4408E-11

            TOTAL IN =   384215264.0000              TOTAL IN =     2603336.2500

          OUT:                                     OUT:
          ----                                     ----
             STORAGE =   383626368.0000               STORAGE =     2595207.5000
       CONSTANT HEAD =           0.0000         CONSTANT HEAD =           0.0000
       RIVER LEAKAGE =      641383.7500         RIVER LEAKAGE =        8575.1855
            RECHARGE =           0.0000              RECHARGE =           0.0000

           TOTAL OUT =   384267744.0000             TOTAL OUT =     2603782.7500

            IN - OUT =      -52480.0000              IN - OUT =        -446.5000

 PERCENT DISCREPANCY =          -0.01     PERCENT DISCREPANCY =          -0.02






         TIME SUMMARY AT END OF TIME STEP  120 IN STRESS PERIOD    1
                    SECONDS     MINUTES      HOURS       DAYS        YEARS
                    -----------------------------------------------------------
   TIME STEP LENGTH  86400.      1440.0      24.000      1.0000     2.73785E-03
 STRESS PERIOD TIME 1.03680E+07 1.72800E+05  2880.0      120.00     0.32854    
         TOTAL TIME 1.03680E+07 1.72800E+05  2880.0      120.00     0.32854    
1
 
 SOLVING FOR HEAD 
                                                   Max.-Head-Change                        Max.-Flux-Residual
  Residual-Control   Outer-Iter.   Inner-Iter.     Column Row Layer    Max.-Head-Change    Column Row Layer    Max.-Flux-Residual            L2-New               L2-Old           Solver-Max-Delh
          0                 1           2            36   47     1       0.1667620035E+00      14  125    1       0.4363310821E+05      0.1367714474E+06      0.6593824899E+02      0.1667620035E+00
          0                 2           2            28   66     1       0.8901617053E-01      14  125    1      -0.4363355063E+04      0.1367732271E+05      0.1367714474E+06      0.8901617053E-01
          0                 3           2            28   66     1       0.8885153332E-01      14  125    1      -0.2181679722E+03      0.6838807620E+03      0.1367732271E+05      0.8885153332E-01

    ------------------------------------------------
       NWT REQUIRED            3 OUTER ITERATIONS 
       AND A TOTAL OF          6 INNER ITERATIONS.
    ------------------------------------------------

 OUTPUT CONTROL FOR STRESS PERIOD    1   TIME STEP  121
    SAVE HEAD FOR ALL LAYERS
    SAVE DRAWDOWN FOR ALL LAYERS
    SAVE BUDGET
    PRINT BUDGET
 UBDSV1 SAVING "         STORAGE" ON UNIT   9 AT TIME STEP121, STRESS PERIOD   1
 UBDSV2 SAVING "   CONSTANT HEAD" ON UNIT   9 AT TIME STEP121, STRESS PERIOD   1
 UBDSV1 SAVING "FLOW RIGHT FACE " ON UNIT   9 AT TIME STEP121, STRESS PERIOD   1
 UBDSV1 SAVING "FLOW FRONT FACE " ON UNIT   9 AT TIME STEP121, STRESS PERIOD   1
 UBDSV4 SAVING "   RIVER LEAKAGE" ON UNIT   9 AT TIME STEP121, STRESS PERIOD   1
 UBDSV3 SAVING "        RECHARGE" ON UNIT   9 AT TIME STEP121, STRESS PERIOD   1

 HEAD WILL BE SAVED ON UNIT   37 AT END OF TIME STEP  121, STRESS PERIOD    1

 DRAWDOWN WILL BE SAVED ON UNIT   38 AT END OF TIME STEP  121, STRESS PERIOD    1
1
  VOLUMETRIC BUDGET FOR ENTIRE MODEL AT END OF TIME STEP  121, STRESS PERIOD   1
  ------------------------------------------------------------------------------

     CUMULATIVE VOLUMES      L**3       RATES FOR THIS TIME STEP      L**3/T
     ------------------                 ------------------------

           IN:                                      IN:
           ---                                      ---
             STORAGE =   110050024.0000               STORAGE =      873107.6250
       CONSTANT HEAD =           0.0000         CONSTANT HEAD =           0.0000
       RIVER LEAKAGE =   275736832.0000         RIVER LEAKAGE =      873345.2500
            RECHARGE =      174859.3438              RECHARGE =       1.9525E-11

            TOTAL IN =   385961696.0000              TOTAL IN =     1746452.8750

          OUT:                                     OUT:
          ----                                     ----
             STORAGE =   385361120.0000               STORAGE =     1734760.5000
       CONSTANT HEAD =           0.0000         CONSTANT HEAD =           0.0000
       RIVER LEAKAGE =      653276.1875         RIVER LEAKAGE =       11892.4531
            RECHARGE =           0.0000              RECHARGE =           0.0000

           TOTAL OUT =   386014400.0000             TOTAL OUT =     1746653.0000

            IN - OUT =      -52704.0000              IN - OUT =        -200.1250

 PERCENT DISCREPANCY =          -0.01     PERCENT DISCREPANCY =          -0.01






         TIME SUMMARY AT END OF TIME STEP  121 IN STRESS PERIOD    1
                    SECONDS     MINUTES      HOURS       DAYS        YEARS
                    -----------------------------------------------------------
   TIME STEP LENGTH  86400.      1440.0      24.000      1.0000     2.73785E-03
 STRESS PERIOD TIME 1.04544E+07 1.74240E+05  2904.0      121.00     0.33128    
         TOTAL TIME 1.04544E+07 1.74240E+05  2904.0      121.00     0.33128    
1
 
 SOLVING FOR HEAD 
                                                   Max.-Head-Change                        Max.-Flux-Residual
  Residual-Control   Outer-Iter.   Inner-Iter.     Column Row Layer    Max.-Head-Change    Column Row Layer    Max.-Flux-Residual            L2-New               L2-Old           Solver-Max-Delh
          0                 1           2            36   47     1       0.1667596407E+00      14  125    1       0.4362164969E+05      0.1353290819E+06      0.3445972685E+02      0.1667596407E+00
          0                 2           2            28   66     1       0.8927926134E-01      14  125    1      -0.4362209301E+04      0.1353308446E+05      0.1353290819E+06      0.8927926134E-01
          0                 3           2            28   66     1       0.8911277954E-01      14  125    1      -0.2181106848E+03      0.6766689321E+03      0.1353308446E+05      0.8911277954E-01

    ------------------------------------------------
       NWT REQUIRED            3 OUTER ITERATIONS 
       AND A TOTAL OF          6 INNER ITERATIONS.
    ------------------------------------------------

 OUTPUT CONTROL FOR STRESS PERIOD    1   TIME STEP  122
    SAVE HEAD FOR ALL LAYERS
    SAVE DRAWDOWN FOR ALL LAYERS
    SAVE BUDGET
    PRINT BUDGET
 UBDSV1 SAVING "         STORAGE" ON UNIT   9 AT TIME STEP122, STRESS PERIOD   1
 UBDSV2 SAVING "   CONSTANT HEAD" ON UNIT   9 AT TIME STEP122, STRESS PERIOD   1
 UBDSV1 SAVING "FLOW RIGHT FACE " ON UNIT   9 AT TIME STEP122, STRESS PERIOD   1
 UBDSV1 SAVING "FLOW FRONT FACE " ON UNIT   9 AT TIME STEP122, STRESS PERIOD   1
 UBDSV4 SAVING "   RIVER LEAKAGE" ON UNIT   9 AT TIME STEP122, STRESS PERIOD   1
 UBDSV3 SAVING "        RECHARGE" ON UNIT   9 AT TIME STEP122, STRESS PERIOD   1

 HEAD WILL BE SAVED ON UNIT   37 AT END OF TIME STEP  122, STRESS PERIOD    1

 DRAWDOWN WILL BE SAVED ON UNIT   38 AT END OF TIME STEP  122, STRESS PERIOD    1
1
  VOLUMETRIC BUDGET FOR ENTIRE MODEL AT END OF TIME STEP  122, STRESS PERIOD   1
  ------------------------------------------------------------------------------

     CUMULATIVE VOLUMES      L**3       RATES FOR THIS TIME STEP      L**3/T
     ------------------                 ------------------------

           IN:                                      IN:
           ---                                      ---
             STORAGE =   110923488.0000               STORAGE =      873460.1875
       CONSTANT HEAD =           0.0000         CONSTANT HEAD =           0.0000
       RIVER LEAKAGE =   276556768.0000         RIVER LEAKAGE =      819933.5000
            RECHARGE =      174859.3438              RECHARGE =       1.5619E-11

            TOTAL IN =   387655104.0000              TOTAL IN =     1693393.7500

          OUT:                                     OUT:
          ----                                     ----
             STORAGE =   387042816.0000               STORAGE =     1681688.0000
       CONSTANT HEAD =           0.0000         CONSTANT HEAD =           0.0000
       RIVER LEAKAGE =      665171.0000         RIVER LEAKAGE =       11894.7998
            RECHARGE =           0.0000              RECHARGE =           0.0000

           TOTAL OUT =   387708000.0000             TOTAL OUT =     1693582.7500

            IN - OUT =      -52896.0000              IN - OUT =        -189.0000

 PERCENT DISCREPANCY =          -0.01     PERCENT DISCREPANCY =          -0.01






         TIME SUMMARY AT END OF TIME STEP  122 IN STRESS PERIOD    1
                    SECONDS     MINUTES      HOURS       DAYS        YEARS
                    -----------------------------------------------------------
   TIME STEP LENGTH  86400.      1440.0      24.000      1.0000     2.73785E-03
 STRESS PERIOD TIME 1.05408E+07 1.75680E+05  2928.0      122.00     0.33402    
         TOTAL TIME 1.05408E+07 1.75680E+05  2928.0      122.00     0.33402    
1
 
 SOLVING FOR HEAD 
                                                   Max.-Head-Change                        Max.-Flux-Residual
  Residual-Control   Outer-Iter.   Inner-Iter.     Column Row Layer    Max.-Head-Change    Column Row Layer    Max.-Flux-Residual            L2-New               L2-Old           Solver-Max-Delh
          0                 1           2            36   47     1       0.1667572802E+00      14  125    1       0.4361014178E+05      0.1346761657E+06      0.3410104105E+02      0.1667572802E+00
          0                 2           2            28   66     1       0.8953316651E-01      14  125    1      -0.4361058556E+04      0.1346779706E+05      0.1346761657E+06      0.8953316651E-01
          0                 3           2            28   66     1       0.8936484950E-01      14  125    1      -0.2180531478E+03      0.6734045733E+03      0.1346779706E+05      0.8936484950E-01
          1                 3           0            28   66     1       0.6255539359E-01      33  104    1      -0.6566351342E+04      0.6566438786E+04      0.6734045733E+03      0.8936484950E-01

    ------------------------------------------------
       NWT REQUIRED            3 OUTER ITERATIONS 
       AND A TOTAL OF          6 INNER ITERATIONS.
    ------------------------------------------------

 OUTPUT CONTROL FOR STRESS PERIOD    1   TIME STEP  123
    SAVE HEAD FOR ALL LAYERS
    SAVE DRAWDOWN FOR ALL LAYERS
    SAVE BUDGET
    PRINT BUDGET
 UBDSV1 SAVING "         STORAGE" ON UNIT   9 AT TIME STEP123, STRESS PERIOD   1
 UBDSV2 SAVING "   CONSTANT HEAD" ON UNIT   9 AT TIME STEP123, STRESS PERIOD   1
 UBDSV1 SAVING "FLOW RIGHT FACE " ON UNIT   9 AT TIME STEP123, STRESS PERIOD   1
 UBDSV1 SAVING "FLOW FRONT FACE " ON UNIT   9 AT TIME STEP123, STRESS PERIOD   1
 UBDSV4 SAVING "   RIVER LEAKAGE" ON UNIT   9 AT TIME STEP123, STRESS PERIOD   1
 UBDSV3 SAVING "        RECHARGE" ON UNIT   9 AT TIME STEP123, STRESS PERIOD   1

 HEAD WILL BE SAVED ON UNIT   37 AT END OF TIME STEP  123, STRESS PERIOD    1

 DRAWDOWN WILL BE SAVED ON UNIT   38 AT END OF TIME STEP  123, STRESS PERIOD    1
1
  VOLUMETRIC BUDGET FOR ENTIRE MODEL AT END OF TIME STEP  123, STRESS PERIOD   1
  ------------------------------------------------------------------------------

     CUMULATIVE VOLUMES      L**3       RATES FOR THIS TIME STEP      L**3/T
     ------------------                 ------------------------

           IN:                                      IN:
           ---                                      ---
             STORAGE =   111798136.0000               STORAGE =      874644.7500
       CONSTANT HEAD =           0.0000         CONSTANT HEAD =           0.0000
       RIVER LEAKAGE =   277349504.0000         RIVER LEAKAGE =      792725.8750
            RECHARGE =      174859.3438              RECHARGE =       1.2495E-11

            TOTAL IN =   389322496.0000              TOTAL IN =     1667370.6250

          OUT:                                     OUT:
          ----                                     ----
             STORAGE =   388699840.0000               STORAGE =     1657033.1250
       CONSTANT HEAD =           0.0000         CONSTANT HEAD =           0.0000
       RIVER LEAKAGE =      677067.3750         RIVER LEAKAGE =       11896.3730
            RECHARGE =           0.0000              RECHARGE =           0.0000

           TOTAL OUT =   389376896.0000             TOTAL OUT =     1668929.5000

            IN - OUT =      -54400.0000              IN - OUT =       -1558.8750

 PERCENT DISCREPANCY =          -0.01     PERCENT DISCREPANCY =          -0.09






         TIME SUMMARY AT END OF TIME STEP  123 IN STRESS PERIOD    1
                    SECONDS     MINUTES      HOURS       DAYS        YEARS
                    -----------------------------------------------------------
   TIME STEP LENGTH  86400.      1440.0      24.000      1.0000     2.73785E-03
 STRESS PERIOD TIME 1.06272E+07 1.77120E+05  2952.0      123.00     0.33676    
         TOTAL TIME 1.06272E+07 1.77120E+05  2952.0      123.00     0.33676    
1
 
 SOLVING FOR HEAD 
                                                   Max.-Head-Change                        Max.-Flux-Residual
  Residual-Control   Outer-Iter.   Inner-Iter.     Column Row Layer    Max.-Head-Change    Column Row Layer    Max.-Flux-Residual            L2-New               L2-Old           Solver-Max-Delh
          0                 1           2            36   47     1       0.1667549734E+00      14  125    1       0.4359858210E+05      0.1344517063E+06      0.3475998388E+03      0.1667549734E+00
          0                 2           2            42   58     1      -0.1240895932E+01      14  125    1      -0.4359902598E+04      0.1339641661E+05      0.1344517063E+06     -0.1240895932E+01
          1                 2           0            42   58     1      -0.8686271377E+00      42   58    1       0.1232133466E+06      0.1232151661E+06      0.1339641661E+05     -0.1240895932E+01
          2                 2           0            42   58     1      -0.6080389861E+00      42   58    1       0.8589296177E+05      0.8601004246E+05      0.1232151661E+06     -0.1240895932E+01
          3                 2           0            42   58     1      -0.4256272830E+00      42   58    1       0.5976704033E+05      0.6019414389E+05      0.8601004246E+05     -0.1240895932E+01
          4                 2           0            42   58     1      -0.2979390930E+00      42   58    1       0.4147808593E+05      0.4244923975E+05      0.6019414389E+05     -0.1240895932E+01
          5                 2           0            42   58     1      -0.2085573616E+00      42   58    1       0.2867542131E+05      0.3048175715E+05      0.4244923975E+05     -0.1240895932E+01
          6                 2           0            42   58     1      -0.1459901506E+00      42   58    1       0.1971336181E+05      0.2269933345E+05      0.3048175715E+05     -0.1240895932E+01
          7                 2           0            42   58     1      -0.1021931037E+00      42   58    1       0.1343982501E+05      0.1794773158E+05      0.2269933345E+05     -0.1240895932E+01
          8                 2           0            42   58     1      -0.7153517136E-01      42   58    1       0.9048302642E+04      0.1530516126E+05      0.1794773158E+05     -0.1240895932E+01
                                                   Max.-Head-Change                        Max.-Flux-Residual
  Residual-Control   Outer-Iter.   Inner-Iter.     Column Row Layer    Max.-Head-Change    Column Row Layer    Max.-Flux-Residual            L2-New               L2-Old           Solver-Max-Delh
          0                 3           2            28   66     1       0.8981966274E-01      42   58    1       0.5974214166E+04      0.1399736239E+05      0.1530516126E+05      0.8981966274E-01
          0                 4           2            28   66     1       0.8964943227E-01      42   58    1       0.1060397211E+04      0.1234862441E+04      0.1399736239E+05      0.8964943227E-01

    ------------------------------------------------
       NWT REQUIRED            4 OUTER ITERATIONS 
       AND A TOTAL OF          8 INNER ITERATIONS.
    ------------------------------------------------

 OUTPUT CONTROL FOR STRESS PERIOD    1   TIME STEP  124
    SAVE HEAD FOR ALL LAYERS
    SAVE DRAWDOWN FOR ALL LAYERS
    SAVE BUDGET
    PRINT BUDGET
 UBDSV1 SAVING "         STORAGE" ON UNIT   9 AT TIME STEP124, STRESS PERIOD   1
 UBDSV2 SAVING "   CONSTANT HEAD" ON UNIT   9 AT TIME STEP124, STRESS PERIOD   1
 UBDSV1 SAVING "FLOW RIGHT FACE " ON UNIT   9 AT TIME STEP124, STRESS PERIOD   1
 UBDSV1 SAVING "FLOW FRONT FACE " ON UNIT   9 AT TIME STEP124, STRESS PERIOD   1
 UBDSV4 SAVING "   RIVER LEAKAGE" ON UNIT   9 AT TIME STEP124, STRESS PERIOD   1
 UBDSV3 SAVING "        RECHARGE" ON UNIT   9 AT TIME STEP124, STRESS PERIOD   1

 HEAD WILL BE SAVED ON UNIT   37 AT END OF TIME STEP  124, STRESS PERIOD    1

 DRAWDOWN WILL BE SAVED ON UNIT   38 AT END OF TIME STEP  124, STRESS PERIOD    1
1
  VOLUMETRIC BUDGET FOR ENTIRE MODEL AT END OF TIME STEP  124, STRESS PERIOD   1
  ------------------------------------------------------------------------------

     CUMULATIVE VOLUMES      L**3       RATES FOR THIS TIME STEP      L**3/T
     ------------------                 ------------------------

           IN:                                      IN:
           ---                                      ---
             STORAGE =   112671216.0000               STORAGE =      873081.8125
       CONSTANT HEAD =           0.0000         CONSTANT HEAD =           0.0000
       RIVER LEAKAGE =   278132864.0000         RIVER LEAKAGE =      783349.6875
            RECHARGE =      174859.3438              RECHARGE =       9.9952E-12

            TOTAL IN =   390978944.0000              TOTAL IN =     1656431.5000

          OUT:                                     OUT:
          ----                                     ----
             STORAGE =   390344352.0000               STORAGE =     1644508.3750
       CONSTANT HEAD =           0.0000         CONSTANT HEAD =           0.0000
       RIVER LEAKAGE =      688972.6875         RIVER LEAKAGE =       11905.3291
            RECHARGE =           0.0000              RECHARGE =           0.0000

           TOTAL OUT =   391033312.0000             TOTAL OUT =     1656413.7500

            IN - OUT =      -54368.0000              IN - OUT =          17.7500

 PERCENT DISCREPANCY =          -0.01     PERCENT DISCREPANCY =           0.00






         TIME SUMMARY AT END OF TIME STEP  124 IN STRESS PERIOD    1
                    SECONDS     MINUTES      HOURS       DAYS        YEARS
                    -----------------------------------------------------------
   TIME STEP LENGTH  86400.      1440.0      24.000      1.0000     2.73785E-03
 STRESS PERIOD TIME 1.07136E+07 1.78560E+05  2976.0      124.00     0.33949    
         TOTAL TIME 1.07136E+07 1.78560E+05  2976.0      124.00     0.33949    
1
 
 SOLVING FOR HEAD 
                                                   Max.-Head-Change                        Max.-Flux-Residual
  Residual-Control   Outer-Iter.   Inner-Iter.     Column Row Layer    Max.-Head-Change    Column Row Layer    Max.-Flux-Residual            L2-New               L2-Old           Solver-Max-Delh
          0                 1           2            36   47     1       0.1667526225E+00      14  125    1       0.4358700071E+05      0.1343009933E+06      0.1908870809E+03      0.1667526225E+00
          0                 2           2            28   66     1       0.9005535831E-01      42   58    1       0.7980904241E+04      0.1557659080E+05      0.1343009933E+06      0.9005535831E-01
          0                 3           2            28   66     1       0.8988331836E-01      42   58    1      -0.7980885723E+03      0.1041297115E+04      0.1557659080E+05      0.8988331836E-01

    ------------------------------------------------
       NWT REQUIRED            3 OUTER ITERATIONS 
       AND A TOTAL OF          6 INNER ITERATIONS.
    ------------------------------------------------

 OUTPUT CONTROL FOR STRESS PERIOD    1   TIME STEP  125
    SAVE HEAD FOR ALL LAYERS
    SAVE DRAWDOWN FOR ALL LAYERS
    SAVE BUDGET
    PRINT BUDGET
 UBDSV1 SAVING "         STORAGE" ON UNIT   9 AT TIME STEP125, STRESS PERIOD   1
 UBDSV2 SAVING "   CONSTANT HEAD" ON UNIT   9 AT TIME STEP125, STRESS PERIOD   1
 UBDSV1 SAVING "FLOW RIGHT FACE " ON UNIT   9 AT TIME STEP125, STRESS PERIOD   1
 UBDSV1 SAVING "FLOW FRONT FACE " ON UNIT   9 AT TIME STEP125, STRESS PERIOD   1
 UBDSV4 SAVING "   RIVER LEAKAGE" ON UNIT   9 AT TIME STEP125, STRESS PERIOD   1
 UBDSV3 SAVING "        RECHARGE" ON UNIT   9 AT TIME STEP125, STRESS PERIOD   1

 HEAD WILL BE SAVED ON UNIT   37 AT END OF TIME STEP  125, STRESS PERIOD    1

 DRAWDOWN WILL BE SAVED ON UNIT   38 AT END OF TIME STEP  125, STRESS PERIOD    1
1
  VOLUMETRIC BUDGET FOR ENTIRE MODEL AT END OF TIME STEP  125, STRESS PERIOD   1
  ------------------------------------------------------------------------------

     CUMULATIVE VOLUMES      L**3       RATES FOR THIS TIME STEP      L**3/T
     ------------------                 ------------------------

           IN:                                      IN:
           ---                                      ---
             STORAGE =   113543832.0000               STORAGE =      872613.0625
       CONSTANT HEAD =           0.0000         CONSTANT HEAD =           0.0000
       RIVER LEAKAGE =   278900224.0000         RIVER LEAKAGE =      767348.8125
            RECHARGE =      174859.3438              RECHARGE =       7.9959E-12

            TOTAL IN =   392618912.0000              TOTAL IN =     1639961.8750

          OUT:                                     OUT:
          ----                                     ----
             STORAGE =   391972608.0000               STORAGE =     1628270.0000
       CONSTANT HEAD =           0.0000         CONSTANT HEAD =           0.0000
       RIVER LEAKAGE =      700884.5625         RIVER LEAKAGE =       11911.8965
            RECHARGE =           0.0000              RECHARGE =           0.0000

           TOTAL OUT =   392673504.0000             TOTAL OUT =     1640181.8750

            IN - OUT =      -54592.0000              IN - OUT =        -220.0000

 PERCENT DISCREPANCY =          -0.01     PERCENT DISCREPANCY =          -0.01






         TIME SUMMARY AT END OF TIME STEP  125 IN STRESS PERIOD    1
                    SECONDS     MINUTES      HOURS       DAYS        YEARS
                    -----------------------------------------------------------
   TIME STEP LENGTH  86400.      1440.0      24.000      1.0000     2.73785E-03
 STRESS PERIOD TIME 1.08000E+07 1.80000E+05  3000.0      125.00     0.34223    
         TOTAL TIME 1.08000E+07 1.80000E+05  3000.0      125.00     0.34223    
1
 
 SOLVING FOR HEAD 
                                                   Max.-Head-Change                        Max.-Flux-Residual
  Residual-Control   Outer-Iter.   Inner-Iter.     Column Row Layer    Max.-Head-Change    Column Row Layer    Max.-Flux-Residual            L2-New               L2-Old           Solver-Max-Delh
          0                 1           2            36   47     1       0.3413229179E+00      36   74    1       0.5478032442E+05      0.2261665073E+06      0.5220418116E+02      0.3413229179E+00
          0                 2           2            28   66     1       0.9028189373E-01      36   74    1      -0.5478077166E+04      0.2261730532E+05      0.2261665073E+06      0.9028189373E-01
          0                 3           2            28   66     1       0.9010804830E-01      36   74    1      -0.2739040524E+03      0.1131441501E+04      0.2261730532E+05      0.9010804830E-01

    ------------------------------------------------
       NWT REQUIRED            3 OUTER ITERATIONS 
       AND A TOTAL OF          6 INNER ITERATIONS.
    ------------------------------------------------

 OUTPUT CONTROL FOR STRESS PERIOD    1   TIME STEP  126
    SAVE HEAD FOR ALL LAYERS
    SAVE DRAWDOWN FOR ALL LAYERS
    SAVE BUDGET
    PRINT BUDGET
 UBDSV1 SAVING "         STORAGE" ON UNIT   9 AT TIME STEP126, STRESS PERIOD   1
 UBDSV2 SAVING "   CONSTANT HEAD" ON UNIT   9 AT TIME STEP126, STRESS PERIOD   1
 UBDSV1 SAVING "FLOW RIGHT FACE " ON UNIT   9 AT TIME STEP126, STRESS PERIOD   1
 UBDSV1 SAVING "FLOW FRONT FACE " ON UNIT   9 AT TIME STEP126, STRESS PERIOD   1
 UBDSV4 SAVING "   RIVER LEAKAGE" ON UNIT   9 AT TIME STEP126, STRESS PERIOD   1
 UBDSV3 SAVING "        RECHARGE" ON UNIT   9 AT TIME STEP126, STRESS PERIOD   1

 HEAD WILL BE SAVED ON UNIT   37 AT END OF TIME STEP  126, STRESS PERIOD    1

 DRAWDOWN WILL BE SAVED ON UNIT   38 AT END OF TIME STEP  126, STRESS PERIOD    1
1
  VOLUMETRIC BUDGET FOR ENTIRE MODEL AT END OF TIME STEP  126, STRESS PERIOD   1
  ------------------------------------------------------------------------------

     CUMULATIVE VOLUMES      L**3       RATES FOR THIS TIME STEP      L**3/T
     ------------------                 ------------------------

           IN:                                      IN:
           ---                                      ---
             STORAGE =   114402600.0000               STORAGE =      858770.5000
       CONSTANT HEAD =           0.0000         CONSTANT HEAD =           0.0000
       RIVER LEAKAGE =   280980896.0000         RIVER LEAKAGE =     2080658.0000
            RECHARGE =      174859.3438              RECHARGE =       6.3966E-12

            TOTAL IN =   395558336.0000              TOTAL IN =     2939428.5000

          OUT:                                     OUT:
          ----                                     ----
             STORAGE =   394900704.0000               STORAGE =     2928102.0000
       CONSTANT HEAD =           0.0000         CONSTANT HEAD =           0.0000
       RIVER LEAKAGE =      712721.6250         RIVER LEAKAGE =       11837.0918
            RECHARGE =           0.0000              RECHARGE =           0.0000

           TOTAL OUT =   395613440.0000             TOTAL OUT =     2939939.0000

            IN - OUT =      -55104.0000              IN - OUT =        -510.5000

 PERCENT DISCREPANCY =          -0.01     PERCENT DISCREPANCY =          -0.02






         TIME SUMMARY AT END OF TIME STEP  126 IN STRESS PERIOD    1
                    SECONDS     MINUTES      HOURS       DAYS        YEARS
                    -----------------------------------------------------------
   TIME STEP LENGTH  86400.      1440.0      24.000      1.0000     2.73785E-03
 STRESS PERIOD TIME 1.08864E+07 1.81440E+05  3024.0      126.00     0.34497    
         TOTAL TIME 1.08864E+07 1.81440E+05  3024.0      126.00     0.34497    
1
 
 SOLVING FOR HEAD 
                                                   Max.-Head-Change                        Max.-Flux-Residual
  Residual-Control   Outer-Iter.   Inner-Iter.     Column Row Layer    Max.-Head-Change    Column Row Layer    Max.-Flux-Residual            L2-New               L2-Old           Solver-Max-Delh
          0                 1           2            42   58     1      -0.2038330209E+00      43   59    1      -0.5365408603E+05      0.1536529825E+06      0.6685287085E+02     -0.2038330209E+00
          0                 2           2            43   59     1       0.1340743296E+02      14  125    1      -0.4356515535E+04      0.1472745502E+05      0.1536529825E+06      0.1340743296E+02
          1                 2           0            43   59     1       0.9385202912E+01      43   59    1      -0.7522945424E+07      0.7592144231E+07      0.1472745502E+05      0.1340743296E+02
          2                 2           0            43   59     1       0.6569641927E+01      43   59    1      -0.5264451882E+07      0.5312769419E+07      0.7592144231E+07      0.1340743296E+02
          3                 2           0            43   59     1       0.4598749270E+01      43   59    1      -0.3683506430E+07      0.3717211252E+07      0.5312769419E+07      0.1340743296E+02
          4                 2           0            43   59     1       0.3219124434E+01      43   59    1      -0.2576844632E+07      0.2600326524E+07      0.3717211252E+07      0.1340743296E+02
          5                 2           0            43   59     1       0.2253387066E+01      43   59    1      -0.1802181577E+07      0.1818515964E+07      0.2600326524E+07      0.1340743296E+02
          6                 2           0            43   59     1       0.1577370919E+01      43   59    1      -0.1259917460E+07      0.1271260840E+07      0.1818515964E+07      0.1340743296E+02
          7                 2           0            43   59     1       0.1104159625E+01      43   59    1      -0.8803325841E+06      0.8881998280E+06      0.1271260840E+07      0.1340743296E+02
          8                 2           0            43   59     1       0.7729117241E+00      43   59    1      -0.6146231757E+06      0.6200823703E+06      0.8881998280E+06      0.1340743296E+02
                                                   Max.-Head-Change                        Max.-Flux-Residual
  Residual-Control   Outer-Iter.   Inner-Iter.     Column Row Layer    Max.-Head-Change    Column Row Layer    Max.-Flux-Residual            L2-New               L2-Old           Solver-Max-Delh
          9                 2           0            43   59     1       0.5410381976E+00      43   59    1      -0.4286265930E+06      0.4324365210E+06      0.6200823703E+06      0.1340743296E+02
         10                 2           0            43   59     1       0.3787267319E+00      43   59    1      -0.2984289873E+06      0.3011369924E+06      0.4324365210E+06      0.1340743296E+02
         11                 2           0            43   59     1       0.2651087078E+00      43   59    1      -0.2072906649E+06      0.2093036386E+06      0.3011369924E+06      0.1340743296E+02
         12                 2           0            43   59     1       0.1855760923E+00      43   59    1      -0.1434938403E+06      0.1451317409E+06      0.2093036386E+06      0.1340743296E+02
         13                 2           0            43   59     1       0.1299032624E+00      43   59    1      -0.9883606382E+05      0.1003753396E+06      0.1451317409E+06      0.1340743296E+02
         14                 2           0            43   59     1       0.9093228213E-01      43   59    1      -0.6757562083E+05      0.6928878720E+05      0.1003753396E+06      0.1340743296E+02
         15                 2           0            43   59     1       0.6365259641E-01      43   59    1      -0.4569331111E+05      0.4788987371E+05      0.6928878720E+05      0.1340743296E+02
         16                 2           0            43   59     1       0.4455681673E-01      43   59    1      -0.3037569456E+05      0.3344540727E+05      0.4788987371E+05      0.1340743296E+02
         17                 2           0            43   59     1       0.3118977118E-01      43   59    1      -0.1965336316E+05      0.2409566681E+05      0.3344540727E+05      0.1340743296E+02
         18                 2           0            43   59     1       0.2183283945E-01      43   59    1      -0.1214773131E+05      0.1853012156E+05      0.2409566681E+05      0.1340743296E+02
                                                   Max.-Head-Change                        Max.-Flux-Residual
  Residual-Control   Outer-Iter.   Inner-Iter.     Column Row Layer    Max.-Head-Change    Column Row Layer    Max.-Flux-Residual            L2-New               L2-Old           Solver-Max-Delh
          0                 3           2            42   58     1       0.4152347308E+01      43   59    1      -0.6893789103E+04      0.1563751662E+05      0.1853012156E+05      0.4152347308E+01
          1                 3           0            42   58     1       0.2906643066E+01      42   58    1      -0.5485831425E+06      0.5485849540E+06      0.1563751662E+05      0.4152347308E+01
          2                 3           0            42   58     1       0.2034650111E+01      42   58    1      -0.3835408422E+06      0.3835806117E+06      0.5485849540E+06      0.4152347308E+01
          3                 3           0            42   58     1       0.1424255054E+01      42   58    1      -0.2680112340E+06      0.2681470603E+06      0.3835806117E+06      0.4152347308E+01
          4                 3           0            42   58     1       0.9969785206E+00      42   58    1      -0.1871405096E+06      0.1874432415E+06      0.2681470603E+06      0.4152347308E+01
          5                 3           0            42   58     1       0.6978849525E+00      42   58    1      -0.1305310035E+06      0.1310935158E+06      0.1874432415E+06      0.4152347308E+01
          6                 3           0            42   58     1       0.4885194585E+00      42   58    1      -0.9090434986E+05      0.9185333708E+05      0.1310935158E+06      0.4152347308E+01
          7                 3           0            42   58     1       0.3419636151E+00      42   58    1      -0.6316569280E+05      0.6467623522E+05      0.9185333708E+05      0.4152347308E+01
          8                 3           0            42   58     1       0.2393745265E+00      42   58    1      -0.4374863319E+05      0.4605928915E+05      0.6467623522E+05      0.4152347308E+01
          9                 3           0            42   58     1       0.1675621657E+00      42   58    1      -0.3015669169E+05      0.3357579240E+05      0.4605928915E+05      0.4152347308E+01
                                                   Max.-Head-Change                        Max.-Flux-Residual
  Residual-Control   Outer-Iter.   Inner-Iter.     Column Row Layer    Max.-Head-Change    Column Row Layer    Max.-Flux-Residual            L2-New               L2-Old           Solver-Max-Delh
         10                 3           0            42   58     1       0.1172935140E+00      42   58    1      -0.2064233280E+05      0.2552332427E+05      0.3357579240E+05      0.4152347308E+01
         11                 3           0            42   58     1       0.8210545839E-01      42   58    1      -0.1398228170E+05      0.2064245963E+05      0.2552332427E+05      0.4152347308E+01
         12                 3           0            42   58     1       0.5747381990E-01      42   58    1      -0.9320246000E+04      0.1792208844E+05      0.2064245963E+05      0.4152347308E+01
          0                 4           2            28   66     1       0.9049659819E-01      43   59    1      -0.6815307059E+04      0.1654225851E+05      0.1792208844E+05      0.9049659819E-01
          0                 5           2            57   55     1       0.2002229128E+00      43   59    1      -0.1209648686E+04      0.1759609417E+04      0.1654225851E+05      0.2002229128E+00
          1                 5           0            57   55     1       0.1401560366E+00      57   55    1      -0.2165169029E+04      0.2184411932E+04      0.1759609417E+04      0.2002229128E+00
          0                 6           2            28   66     1       0.9019817756E-01      57   55    1      -0.8587081034E+03      0.1123452410E+04      0.2184411932E+04      0.9019817756E-01

    ------------------------------------------------
       NWT REQUIRED            6 OUTER ITERATIONS 
       AND A TOTAL OF         12 INNER ITERATIONS.
    ------------------------------------------------

 OUTPUT CONTROL FOR STRESS PERIOD    1   TIME STEP  127
    SAVE HEAD FOR ALL LAYERS
    SAVE DRAWDOWN FOR ALL LAYERS
    SAVE BUDGET
    PRINT BUDGET
 UBDSV1 SAVING "         STORAGE" ON UNIT   9 AT TIME STEP127, STRESS PERIOD   1
 UBDSV2 SAVING "   CONSTANT HEAD" ON UNIT   9 AT TIME STEP127, STRESS PERIOD   1
 UBDSV1 SAVING "FLOW RIGHT FACE " ON UNIT   9 AT TIME STEP127, STRESS PERIOD   1
 UBDSV1 SAVING "FLOW FRONT FACE " ON UNIT   9 AT TIME STEP127, STRESS PERIOD   1
 UBDSV4 SAVING "   RIVER LEAKAGE" ON UNIT   9 AT TIME STEP127, STRESS PERIOD   1
 UBDSV3 SAVING "        RECHARGE" ON UNIT   9 AT TIME STEP127, STRESS PERIOD   1

 HEAD WILL BE SAVED ON UNIT   37 AT END OF TIME STEP  127, STRESS PERIOD    1

 DRAWDOWN WILL BE SAVED ON UNIT   38 AT END OF TIME STEP  127, STRESS PERIOD    1
1
  VOLUMETRIC BUDGET FOR ENTIRE MODEL AT END OF TIME STEP  127, STRESS PERIOD   1
  ------------------------------------------------------------------------------

     CUMULATIVE VOLUMES      L**3       RATES FOR THIS TIME STEP      L**3/T
     ------------------                 ------------------------

           IN:                                      IN:
           ---                                      ---
             STORAGE =   115273920.0000               STORAGE =      871321.1875
       CONSTANT HEAD =           0.0000         CONSTANT HEAD =           0.0000
       RIVER LEAKAGE =   281618816.0000         RIVER LEAKAGE =      637933.2500
            RECHARGE =      174859.3438              RECHARGE =       5.1172E-12

            TOTAL IN =   397067584.0000              TOTAL IN =     1509254.5000

          OUT:                                     OUT:
          ----                                     ----
             STORAGE =   396397856.0000               STORAGE =     1497146.2500
       CONSTANT HEAD =           0.0000         CONSTANT HEAD =           0.0000
       RIVER LEAKAGE =      725079.3750         RIVER LEAKAGE =       12357.7402
            RECHARGE =           0.0000              RECHARGE =           0.0000

           TOTAL OUT =   397122944.0000             TOTAL OUT =     1509504.0000

            IN - OUT =      -55360.0000              IN - OUT =        -249.5000

 PERCENT DISCREPANCY =          -0.01     PERCENT DISCREPANCY =          -0.02






         TIME SUMMARY AT END OF TIME STEP  127 IN STRESS PERIOD    1
                    SECONDS     MINUTES      HOURS       DAYS        YEARS
                    -----------------------------------------------------------
   TIME STEP LENGTH  86400.      1440.0      24.000      1.0000     2.73785E-03
 STRESS PERIOD TIME 1.09728E+07 1.82880E+05  3048.0      127.00     0.34771    
         TOTAL TIME 1.09728E+07 1.82880E+05  3048.0      127.00     0.34771    
1
 
 SOLVING FOR HEAD 
                                                   Max.-Head-Change                        Max.-Flux-Residual
  Residual-Control   Outer-Iter.   Inner-Iter.     Column Row Layer    Max.-Head-Change    Column Row Layer    Max.-Flux-Residual            L2-New               L2-Old           Solver-Max-Delh
          0                 1           2            35   42     1       0.1187255373E+00      14  125    1       0.4355305211E+05      0.1588466171E+06      0.1297580001E+03      0.1187255373E+00
          0                 2           2            48   47     1       0.1399398219E+02      14  125    1      -0.4355346517E+04      0.1604498143E+05      0.1588466171E+06      0.1399398219E+02
          1                 2           0            48   47     1       0.9795787366E+01      48   47    1      -0.2693738544E+07      0.2693741487E+07      0.1604498143E+05      0.1399398219E+02
          2                 2           0            48   47     1       0.6857051039E+01      48   47    1      -0.1880889785E+07      0.1880897290E+07      0.2693741487E+07      0.1399398219E+02
          3                 2           0            48   47     1       0.4799935646E+01      48   47    1      -0.1311895683E+07      0.1311923076E+07      0.1880897290E+07      0.1399398219E+02
          4                 2           0            48   47     1       0.3359954895E+01      48   47    1      -0.9135998185E+06      0.9136623913E+06      0.1311923076E+07      0.1399398219E+02
          5                 2           0            48   47     1       0.2351968386E+01      48   47    1      -0.6347927180E+06      0.6349107771E+06      0.9136623913E+06      0.1399398219E+02
          6                 2           0            48   47     1       0.1646377842E+01      48   47    1      -0.4396277511E+06      0.4398297562E+06      0.6349107771E+06      0.1399398219E+02
          7                 2           0            48   47     1       0.1152464470E+01      48   47    1      -0.3030122765E+06      0.3033396198E+06      0.4398297562E+06      0.1399398219E+02
          8                 2           0            48   47     1       0.8067251153E+00      48   47    1      -0.2073814460E+06      0.2078961700E+06      0.3033396198E+06      0.1399398219E+02
                                                   Max.-Head-Change                        Max.-Flux-Residual
  Residual-Control   Outer-Iter.   Inner-Iter.     Column Row Layer    Max.-Head-Change    Column Row Layer    Max.-Flux-Residual            L2-New               L2-Old           Solver-Max-Delh
          9                 2           0            48   47     1       0.5647075711E+00      48   47    1      -0.1404398657E+06      0.1412378614E+06      0.2078961700E+06      0.1399398219E+02
         10                 2           0            48   47     1       0.3952952930E+00      48   47    1      -0.9358076033E+05      0.9481570664E+05      0.1412378614E+06      0.1399398219E+02
         11                 2           0            48   47     1       0.2767067004E+00      48   47    1      -0.6077938713E+05      0.6270878380E+05      0.9481570664E+05      0.1399398219E+02
         12                 2           0            48   47     1       0.1936946870E+00      48   47    1      -0.3781842628E+05      0.4089559063E+05      0.6270878380E+05      0.1399398219E+02
         13                 2           0            48   47     1       0.1355862786E+00      48   47    1      -0.2174575395E+05      0.2679335730E+05      0.4089559063E+05      0.1399398219E+02
         14                 2           0            48   47     1       0.9491039339E-01      48   47    1      -0.1049488352E+05      0.1889739181E+05      0.2679335730E+05      0.1399398219E+02
          0                 3           2            48   49     1       0.1286780602E+00      14  125    1      -0.4327284506E+04      0.1597522938E+05      0.1889739181E+05      0.1286780602E+00
          0                 4           2            28   66     1       0.9040373880E-01      48   49    1      -0.3891688826E+04      0.3972785936E+04      0.1597522938E+05      0.9040373880E-01

    ------------------------------------------------
       NWT REQUIRED            4 OUTER ITERATIONS 
       AND A TOTAL OF          8 INNER ITERATIONS.
    ------------------------------------------------

 OUTPUT CONTROL FOR STRESS PERIOD    1   TIME STEP  128
    SAVE HEAD FOR ALL LAYERS
    SAVE DRAWDOWN FOR ALL LAYERS
    SAVE BUDGET
    PRINT BUDGET
 UBDSV1 SAVING "         STORAGE" ON UNIT   9 AT TIME STEP128, STRESS PERIOD   1
 UBDSV2 SAVING "   CONSTANT HEAD" ON UNIT   9 AT TIME STEP128, STRESS PERIOD   1
 UBDSV1 SAVING "FLOW RIGHT FACE " ON UNIT   9 AT TIME STEP128, STRESS PERIOD   1
 UBDSV1 SAVING "FLOW FRONT FACE " ON UNIT   9 AT TIME STEP128, STRESS PERIOD   1
 UBDSV4 SAVING "   RIVER LEAKAGE" ON UNIT   9 AT TIME STEP128, STRESS PERIOD   1
 UBDSV3 SAVING "        RECHARGE" ON UNIT   9 AT TIME STEP128, STRESS PERIOD   1

 HEAD WILL BE SAVED ON UNIT   37 AT END OF TIME STEP  128, STRESS PERIOD    1

 DRAWDOWN WILL BE SAVED ON UNIT   38 AT END OF TIME STEP  128, STRESS PERIOD    1
1
  VOLUMETRIC BUDGET FOR ENTIRE MODEL AT END OF TIME STEP  128, STRESS PERIOD   1
  ------------------------------------------------------------------------------

     CUMULATIVE VOLUMES      L**3       RATES FOR THIS TIME STEP      L**3/T
     ------------------                 ------------------------

           IN:                                      IN:
           ---                                      ---
             STORAGE =   116133976.0000               STORAGE =      860056.8125
       CONSTANT HEAD =           0.0000         CONSTANT HEAD =           0.0000
       RIVER LEAKAGE =   282885024.0000         RIVER LEAKAGE =     1266206.1250
            RECHARGE =      174859.3438              RECHARGE =       4.0938E-12

            TOTAL IN =   399193856.0000              TOTAL IN =     2126263.0000

          OUT:                                     OUT:
          ----                                     ----
             STORAGE =   398512704.0000               STORAGE =     2114854.7500
       CONSTANT HEAD =           0.0000         CONSTANT HEAD =           0.0000
       RIVER LEAKAGE =      737008.4375         RIVER LEAKAGE =       11929.0781
            RECHARGE =           0.0000              RECHARGE =           0.0000

           TOTAL OUT =   399249728.0000             TOTAL OUT =     2126783.7500

            IN - OUT =      -55872.0000              IN - OUT =        -520.7500

 PERCENT DISCREPANCY =          -0.01     PERCENT DISCREPANCY =          -0.02






         TIME SUMMARY AT END OF TIME STEP  128 IN STRESS PERIOD    1
                    SECONDS     MINUTES      HOURS       DAYS        YEARS
                    -----------------------------------------------------------
   TIME STEP LENGTH  86400.      1440.0      24.000      1.0000     2.73785E-03
 STRESS PERIOD TIME 1.10592E+07 1.84320E+05  3072.0      128.00     0.35044    
         TOTAL TIME 1.10592E+07 1.84320E+05  3072.0      128.00     0.35044    
1
 
 SOLVING FOR HEAD 
                                                   Max.-Head-Change                        Max.-Flux-Residual
  Residual-Control   Outer-Iter.   Inner-Iter.     Column Row Layer    Max.-Head-Change    Column Row Layer    Max.-Flux-Residual            L2-New               L2-Old           Solver-Max-Delh
          0                 1           2            35   42     1       0.1187220476E+00      14  125    1       0.4354166621E+05      0.1335433010E+06      0.1986731869E+03      0.1187220476E+00
          0                 2           2            28   66     1       0.9077994501E-01      14  125    1      -0.4354210760E+04      0.1335441728E+05      0.1335433010E+06      0.9077994501E-01
          0                 3           2            28   66     1       0.9060100184E-01      14  125    1      -0.2177107562E+03      0.6677321377E+03      0.1335441728E+05      0.9060100184E-01

    ------------------------------------------------
       NWT REQUIRED            3 OUTER ITERATIONS 
       AND A TOTAL OF          6 INNER ITERATIONS.
    ------------------------------------------------

 OUTPUT CONTROL FOR STRESS PERIOD    1   TIME STEP  129
    SAVE HEAD FOR ALL LAYERS
    SAVE DRAWDOWN FOR ALL LAYERS
    SAVE BUDGET
    PRINT BUDGET
 UBDSV1 SAVING "         STORAGE" ON UNIT   9 AT TIME STEP129, STRESS PERIOD   1
 UBDSV2 SAVING "   CONSTANT HEAD" ON UNIT   9 AT TIME STEP129, STRESS PERIOD   1
 UBDSV1 SAVING "FLOW RIGHT FACE " ON UNIT   9 AT TIME STEP129, STRESS PERIOD   1
 UBDSV1 SAVING "FLOW FRONT FACE " ON UNIT   9 AT TIME STEP129, STRESS PERIOD   1
 UBDSV4 SAVING "   RIVER LEAKAGE" ON UNIT   9 AT TIME STEP129, STRESS PERIOD   1
 UBDSV3 SAVING "        RECHARGE" ON UNIT   9 AT TIME STEP129, STRESS PERIOD   1

 HEAD WILL BE SAVED ON UNIT   37 AT END OF TIME STEP  129, STRESS PERIOD    1

 DRAWDOWN WILL BE SAVED ON UNIT   38 AT END OF TIME STEP  129, STRESS PERIOD    1
1
  VOLUMETRIC BUDGET FOR ENTIRE MODEL AT END OF TIME STEP  129, STRESS PERIOD   1
  ------------------------------------------------------------------------------

     CUMULATIVE VOLUMES      L**3       RATES FOR THIS TIME STEP      L**3/T
     ------------------                 ------------------------

           IN:                                      IN:
           ---                                      ---
             STORAGE =   117003744.0000               STORAGE =      869766.5000
       CONSTANT HEAD =           0.0000         CONSTANT HEAD =           0.0000
       RIVER LEAKAGE =   283536256.0000         RIVER LEAKAGE =      651236.0625
            RECHARGE =      174859.3438              RECHARGE =       3.2750E-12

            TOTAL IN =   400714848.0000              TOTAL IN =     1521002.5000

          OUT:                                     OUT:
          ----                                     ----
             STORAGE =   400021760.0000               STORAGE =     1509059.3750
       CONSTANT HEAD =           0.0000         CONSTANT HEAD =           0.0000
       RIVER LEAKAGE =      749082.9375         RIVER LEAKAGE =       12074.5146
            RECHARGE =           0.0000              RECHARGE =           0.0000

           TOTAL OUT =   400770848.0000             TOTAL OUT =     1521133.8750

            IN - OUT =      -56000.0000              IN - OUT =        -131.3750

 PERCENT DISCREPANCY =          -0.01     PERCENT DISCREPANCY =          -0.01






         TIME SUMMARY AT END OF TIME STEP  129 IN STRESS PERIOD    1
                    SECONDS     MINUTES      HOURS       DAYS        YEARS
                    -----------------------------------------------------------
   TIME STEP LENGTH  86400.      1440.0      24.000      1.0000     2.73785E-03
 STRESS PERIOD TIME 1.11456E+07 1.85760E+05  3096.0      129.00     0.35318    
         TOTAL TIME 1.11456E+07 1.85760E+05  3096.0      129.00     0.35318    
1
 
 SOLVING FOR HEAD 
                                                   Max.-Head-Change                        Max.-Flux-Residual
  Residual-Control   Outer-Iter.   Inner-Iter.     Column Row Layer    Max.-Head-Change    Column Row Layer    Max.-Flux-Residual            L2-New               L2-Old           Solver-Max-Delh
          0                 1           2            35   42     1       0.1187185540E+00      14  125    1       0.4352995163E+05      0.1306514411E+06      0.3359959125E+02      0.1187185540E+00
          0                 2           2            28   66     1       0.9096995029E-01      14  125    1      -0.4353039275E+04      0.1306523284E+05      0.1306514411E+06      0.9096995029E-01
          0                 3           2            28   66     1       0.9078924994E-01      14  125    1      -0.2176521823E+03      0.6532731377E+03      0.1306523284E+05      0.9078924994E-01

    ------------------------------------------------
       NWT REQUIRED            3 OUTER ITERATIONS 
       AND A TOTAL OF          6 INNER ITERATIONS.
    ------------------------------------------------

 OUTPUT CONTROL FOR STRESS PERIOD    1   TIME STEP  130
    SAVE HEAD FOR ALL LAYERS
    SAVE DRAWDOWN FOR ALL LAYERS
    SAVE BUDGET
    PRINT BUDGET
 UBDSV1 SAVING "         STORAGE" ON UNIT   9 AT TIME STEP130, STRESS PERIOD   1
 UBDSV2 SAVING "   CONSTANT HEAD" ON UNIT   9 AT TIME STEP130, STRESS PERIOD   1
 UBDSV1 SAVING "FLOW RIGHT FACE " ON UNIT   9 AT TIME STEP130, STRESS PERIOD   1
 UBDSV1 SAVING "FLOW FRONT FACE " ON UNIT   9 AT TIME STEP130, STRESS PERIOD   1
 UBDSV4 SAVING "   RIVER LEAKAGE" ON UNIT   9 AT TIME STEP130, STRESS PERIOD   1
 UBDSV3 SAVING "        RECHARGE" ON UNIT   9 AT TIME STEP130, STRESS PERIOD   1

 HEAD WILL BE SAVED ON UNIT   37 AT END OF TIME STEP  130, STRESS PERIOD    1

 DRAWDOWN WILL BE SAVED ON UNIT   38 AT END OF TIME STEP  130, STRESS PERIOD    1
1
  VOLUMETRIC BUDGET FOR ENTIRE MODEL AT END OF TIME STEP  130, STRESS PERIOD   1
  ------------------------------------------------------------------------------

     CUMULATIVE VOLUMES      L**3       RATES FOR THIS TIME STEP      L**3/T
     ------------------                 ------------------------

           IN:                                      IN:
           ---                                      ---
             STORAGE =   117872648.0000               STORAGE =      868905.0000
       CONSTANT HEAD =           0.0000         CONSTANT HEAD =           0.0000
       RIVER LEAKAGE =   284178304.0000         RIVER LEAKAGE =      642052.5625
            RECHARGE =      174859.3438              RECHARGE =       2.6201E-12

            TOTAL IN =   402225792.0000              TOTAL IN =     1510957.5000

          OUT:                                     OUT:
          ----                                     ----
             STORAGE =   401520832.0000               STORAGE =     1499072.7500
       CONSTANT HEAD =           0.0000         CONSTANT HEAD =           0.0000
       RIVER LEAKAGE =      761116.1250         RIVER LEAKAGE =       12033.2002
            RECHARGE =           0.0000              RECHARGE =           0.0000

           TOTAL OUT =   402281952.0000             TOTAL OUT =     1511106.0000

            IN - OUT =      -56160.0000              IN - OUT =        -148.5000

 PERCENT DISCREPANCY =          -0.01     PERCENT DISCREPANCY =          -0.01






         TIME SUMMARY AT END OF TIME STEP  130 IN STRESS PERIOD    1
                    SECONDS     MINUTES      HOURS       DAYS        YEARS
                    -----------------------------------------------------------
   TIME STEP LENGTH  86400.      1440.0      24.000      1.0000     2.73785E-03
 STRESS PERIOD TIME 1.12320E+07 1.87200E+05  3120.0      130.00     0.35592    
         TOTAL TIME 1.12320E+07 1.87200E+05  3120.0      130.00     0.35592    
1
 
 SOLVING FOR HEAD 
                                                   Max.-Head-Change                        Max.-Flux-Residual
  Residual-Control   Outer-Iter.   Inner-Iter.     Column Row Layer    Max.-Head-Change    Column Row Layer    Max.-Flux-Residual            L2-New               L2-Old           Solver-Max-Delh
          0                 1           2            35   42     1       0.1187150570E+00      14  125    1       0.4351820638E+05      0.1286596571E+06      0.3288084098E+02      0.1187150570E+00
          0                 2           2            28   66     1       0.9115095746E-01      14  125    1      -0.4351864840E+04      0.1286605482E+05      0.1286596571E+06      0.9115095746E-01
          0                 3           2            28   66     1       0.9096851229E-01      14  125    1      -0.2175934611E+03      0.6433143748E+03      0.1286605482E+05      0.9096851229E-01

    ------------------------------------------------
       NWT REQUIRED            3 OUTER ITERATIONS 
       AND A TOTAL OF          6 INNER ITERATIONS.
    ------------------------------------------------

 OUTPUT CONTROL FOR STRESS PERIOD    1   TIME STEP  131
    SAVE HEAD FOR ALL LAYERS
    SAVE DRAWDOWN FOR ALL LAYERS
    SAVE BUDGET
    PRINT BUDGET
 UBDSV1 SAVING "         STORAGE" ON UNIT   9 AT TIME STEP131, STRESS PERIOD   1
 UBDSV2 SAVING "   CONSTANT HEAD" ON UNIT   9 AT TIME STEP131, STRESS PERIOD   1
 UBDSV1 SAVING "FLOW RIGHT FACE " ON UNIT   9 AT TIME STEP131, STRESS PERIOD   1
 UBDSV1 SAVING "FLOW FRONT FACE " ON UNIT   9 AT TIME STEP131, STRESS PERIOD   1
 UBDSV4 SAVING "   RIVER LEAKAGE" ON UNIT   9 AT TIME STEP131, STRESS PERIOD   1
 UBDSV3 SAVING "        RECHARGE" ON UNIT   9 AT TIME STEP131, STRESS PERIOD   1

 HEAD WILL BE SAVED ON UNIT   37 AT END OF TIME STEP  131, STRESS PERIOD    1

 DRAWDOWN WILL BE SAVED ON UNIT   38 AT END OF TIME STEP  131, STRESS PERIOD    1
1
  VOLUMETRIC BUDGET FOR ENTIRE MODEL AT END OF TIME STEP  131, STRESS PERIOD   1
  ------------------------------------------------------------------------------

     CUMULATIVE VOLUMES      L**3       RATES FOR THIS TIME STEP      L**3/T
     ------------------                 ------------------------

           IN:                                      IN:
           ---                                      ---
             STORAGE =   118742024.0000               STORAGE =      869373.8125
       CONSTANT HEAD =           0.0000         CONSTANT HEAD =           0.0000
       RIVER LEAKAGE =   284781088.0000         RIVER LEAKAGE =      602772.6250
            RECHARGE =      174859.3438              RECHARGE =       2.0961E-12

            TOTAL IN =   403697952.0000              TOTAL IN =     1472146.5000

          OUT:                                     OUT:
          ----                                     ----
             STORAGE =   402981088.0000               STORAGE =     1460245.0000
       CONSTANT HEAD =           0.0000         CONSTANT HEAD =           0.0000
       RIVER LEAKAGE =      773156.0000         RIVER LEAKAGE =       12039.8984
            RECHARGE =           0.0000              RECHARGE =           0.0000

           TOTAL OUT =   403754240.0000             TOTAL OUT =     1472284.8750

            IN - OUT =      -56288.0000              IN - OUT =        -138.3750

 PERCENT DISCREPANCY =          -0.01     PERCENT DISCREPANCY =          -0.01






         TIME SUMMARY AT END OF TIME STEP  131 IN STRESS PERIOD    1
                    SECONDS     MINUTES      HOURS       DAYS        YEARS
                    -----------------------------------------------------------
   TIME STEP LENGTH  86400.      1440.0      24.000      1.0000     2.73785E-03
 STRESS PERIOD TIME 1.13184E+07 1.88640E+05  3144.0      131.00     0.35866    
         TOTAL TIME 1.13184E+07 1.88640E+05  3144.0      131.00     0.35866    
1
 
 SOLVING FOR HEAD 
                                                   Max.-Head-Change                        Max.-Flux-Residual
  Residual-Control   Outer-Iter.   Inner-Iter.     Column Row Layer    Max.-Head-Change    Column Row Layer    Max.-Flux-Residual            L2-New               L2-Old           Solver-Max-Delh
          0                 1           2            61   17     1       0.3601877732E+00      14  125    1       0.4350641069E+05      0.1388414410E+06      0.3238561484E+02      0.3601877732E+00
          0                 2           2            61   17     1       0.3601747764E+00      14  125    1      -0.4350684673E+04      0.1388424563E+05      0.1388414410E+06      0.3601747764E+00
          0                 3           2            61   17     1       0.3601617790E+00      14  125    1      -0.2175344482E+03      0.6942341740E+03      0.1388424563E+05      0.3601617790E+00

    ------------------------------------------------
       NWT REQUIRED            3 OUTER ITERATIONS 
       AND A TOTAL OF          6 INNER ITERATIONS.
    ------------------------------------------------

 OUTPUT CONTROL FOR STRESS PERIOD    1   TIME STEP  132
    SAVE HEAD FOR ALL LAYERS
    SAVE DRAWDOWN FOR ALL LAYERS
    SAVE BUDGET
    PRINT BUDGET
 UBDSV1 SAVING "         STORAGE" ON UNIT   9 AT TIME STEP132, STRESS PERIOD   1
 UBDSV2 SAVING "   CONSTANT HEAD" ON UNIT   9 AT TIME STEP132, STRESS PERIOD   1
 UBDSV1 SAVING "FLOW RIGHT FACE " ON UNIT   9 AT TIME STEP132, STRESS PERIOD   1
 UBDSV1 SAVING "FLOW FRONT FACE " ON UNIT   9 AT TIME STEP132, STRESS PERIOD   1
 UBDSV4 SAVING "   RIVER LEAKAGE" ON UNIT   9 AT TIME STEP132, STRESS PERIOD   1
 UBDSV3 SAVING "        RECHARGE" ON UNIT   9 AT TIME STEP132, STRESS PERIOD   1

 HEAD WILL BE SAVED ON UNIT   37 AT END OF TIME STEP  132, STRESS PERIOD    1

 DRAWDOWN WILL BE SAVED ON UNIT   38 AT END OF TIME STEP  132, STRESS PERIOD    1
1
  VOLUMETRIC BUDGET FOR ENTIRE MODEL AT END OF TIME STEP  132, STRESS PERIOD   1
  ------------------------------------------------------------------------------

     CUMULATIVE VOLUMES      L**3       RATES FOR THIS TIME STEP      L**3/T
     ------------------                 ------------------------

           IN:                                      IN:
           ---                                      ---
             STORAGE =   119604624.0000               STORAGE =      862602.1250
       CONSTANT HEAD =           0.0000         CONSTANT HEAD =           0.0000
       RIVER LEAKAGE =   285666432.0000         RIVER LEAKAGE =      885355.7500
            RECHARGE =      174872.1719              RECHARGE =          12.8275

            TOTAL IN =   405445952.0000              TOTAL IN =     1747970.7500

          OUT:                                     OUT:
          ----                                     ----
             STORAGE =   404717248.0000               STORAGE =     1736152.5000
       CONSTANT HEAD =           0.0000         CONSTANT HEAD =           0.0000
       RIVER LEAKAGE =      785184.5625         RIVER LEAKAGE =       12028.5801
            RECHARGE =           0.0000              RECHARGE =           0.0000

           TOTAL OUT =   405502432.0000             TOTAL OUT =     1748181.1250

            IN - OUT =      -56480.0000              IN - OUT =        -210.3750

 PERCENT DISCREPANCY =          -0.01     PERCENT DISCREPANCY =          -0.01






         TIME SUMMARY AT END OF TIME STEP  132 IN STRESS PERIOD    1
                    SECONDS     MINUTES      HOURS       DAYS        YEARS
                    -----------------------------------------------------------
   TIME STEP LENGTH  86400.      1440.0      24.000      1.0000     2.73785E-03
 STRESS PERIOD TIME 1.14048E+07 1.90080E+05  3168.0      132.00     0.36140    
         TOTAL TIME 1.14048E+07 1.90080E+05  3168.0      132.00     0.36140    
1
 
 SOLVING FOR HEAD 
                                                   Max.-Head-Change                        Max.-Flux-Residual
  Residual-Control   Outer-Iter.   Inner-Iter.     Column Row Layer    Max.-Head-Change    Column Row Layer    Max.-Flux-Residual            L2-New               L2-Old           Solver-Max-Delh
          0                 1           2            61   17     1       0.1647586777E+01      14  125    1       0.4349464726E+05      0.1306094099E+06      0.3513295680E+02      0.1647586777E+01
          0                 2           2            61   17     1       0.1647314833E+01      35   82    1      -0.3441858707E+05      0.3681343992E+05      0.1306094099E+06      0.1647314833E+01
          0                 3           2            61   17     1       0.1647043023E+01      35   82    1      -0.1720944516E+04      0.1840774346E+04      0.3681343992E+05      0.1647043023E+01
          0                 4           2            61   17     1       0.1646771347E+01      35   82    1      -0.8603001734E+02      0.9376616195E+02      0.1840774346E+04      0.1646771347E+01
          0                 5           2            61   17     1       0.1646499805E+01      35   82    1      -0.1749628543E+02      0.2517824314E+02      0.9376616195E+02      0.1646499805E+01
          0                 6           2            61   17     1       0.1646228397E+01      61   17    1       0.1497848034E+02      0.1851007042E+02      0.2517824314E+02      0.1646228397E+01
          0                 7           2            61   17     1       0.1645957124E+01      61   17    1       0.1497848034E+02      0.1804629818E+02      0.1851007042E+02      0.1645957124E+01
          0                 8           2            61   17     1       0.1645685985E+01      61   17    1       0.1497848034E+02      0.1803138466E+02      0.1804629818E+02      0.1645685985E+01
          0                 9           2            61   17     1       0.1645414980E+01      61   17    1       0.1497848034E+02      0.1803095177E+02      0.1803138466E+02      0.1645414980E+01
          0                10           2            61   17     1       0.1645144109E+01      61   17    1       0.1497848034E+02      0.1803063993E+02      0.1803095177E+02      0.1645144109E+01
                                                   Max.-Head-Change                        Max.-Flux-Residual
  Residual-Control   Outer-Iter.   Inner-Iter.     Column Row Layer    Max.-Head-Change    Column Row Layer    Max.-Flux-Residual            L2-New               L2-Old           Solver-Max-Delh
          0                11           2            61   17     1       0.1644873371E+01      61   17    1       0.1497848034E+02      0.1803033120E+02      0.1803063993E+02      0.1644873371E+01
          0                12           2            61   17     1       0.1644602767E+01      61   17    1       0.1497848034E+02      0.1803002501E+02      0.1803033120E+02      0.1644602767E+01
          0                13           2            61   17     1       0.1644332296E+01      61   17    1       0.1497848034E+02      0.1802972121E+02      0.1803002501E+02      0.1644332296E+01
          0                14           2            61   17     1       0.1644061959E+01      61   17    1       0.1497848034E+02      0.1802941972E+02      0.1802972121E+02      0.1644061959E+01
          0                15           2            61   17     1       0.1643791756E+01      61   17    1       0.1497848034E+02      0.1802912045E+02      0.1802941972E+02      0.1643791756E+01
          1                15           0            61   17     1       0.1150654209E+01      61   17    1      -0.3774138293E+05      0.3774138431E+05      0.1802912045E+02      0.1643791756E+01
          0                16           2            61   17     1       0.1643602697E+01      61   17    1       0.1497848034E+02      0.1802891237E+02      0.3774138431E+05      0.1643602697E+01
          1                16           0            61   17     1       0.1150521868E+01      61   17    1      -0.1530942102E+06      0.1530942106E+06      0.1802891237E+02      0.1643602697E+01
          2                16           0            61   17     1       0.8053652940E+00      61   17    1      -0.1036515969E+06      0.1036515975E+06      0.1530942106E+06      0.1643602697E+01
          3                16           0            61   17     1       0.5637556962E+00      61   17    1      -0.6904466666E+05      0.6904466744E+05      0.1036515975E+06      0.1643602697E+01
                                                   Max.-Head-Change                        Max.-Flux-Residual
  Residual-Control   Outer-Iter.   Inner-Iter.     Column Row Layer    Max.-Head-Change    Column Row Layer    Max.-Flux-Residual            L2-New               L2-Old           Solver-Max-Delh
          4                16           0            61   17     1       0.3946289806E+00      61   17    1      -0.4482123612E+05      0.4482123729E+05      0.6904466744E+05      0.1643602697E+01
          5                16           0            61   17     1       0.2762402817E+00      61   17    1      -0.2786553094E+05      0.2786553279E+05      0.4482123729E+05      0.1643602697E+01
          6                16           0            61   17     1       0.1933681939E+00      61   17    1      -0.1599687852E+05      0.1599688170E+05      0.2786553279E+05      0.1643602697E+01
          7                16           0            61   17     1       0.1353577334E+00      61   17    1      -0.7688989048E+04      0.7688995632E+04      0.1599688170E+05      0.1643602697E+01
          8                16           0            61   17     1       0.9475041180E-01      61   17    1      -0.1873548394E+04      0.1873575298E+04      0.7688995632E+04      0.1643602697E+01
          0                17           2            61   17     1       0.1643587131E+01      61   17    1       0.1497848034E+02      0.1802889530E+02      0.1873575298E+04      0.1643587131E+01
          1                17           0            61   17     1       0.1150510972E+01      61   17    1      -0.1625940997E+06      0.1625941001E+06      0.1802889530E+02      0.1643587131E+01
          2                17           0            61   17     1       0.8053576667E+00      61   17    1      -0.1131510188E+06      0.1131510193E+06      0.1625941001E+06      0.1643587131E+01
          3                17           0            61   17     1       0.5637503571E+00      61   17    1      -0.7854376111E+05      0.7854376181E+05      0.1131510193E+06      0.1643587131E+01
          4                17           0            61   17     1       0.3946252432E+00      61   17    1      -0.5432010134E+05      0.5432010232E+05      0.7854376181E+05      0.1643587131E+01
                                                   Max.-Head-Change                        Max.-Flux-Residual
  Residual-Control   Outer-Iter.   Inner-Iter.     Column Row Layer    Max.-Head-Change    Column Row Layer    Max.-Flux-Residual            L2-New               L2-Old           Solver-Max-Delh
          5                17           0            61   17     1       0.2762376656E+00      61   17    1      -0.3736423569E+05      0.3736423709E+05      0.5432010232E+05      0.1643587131E+01
          6                17           0            61   17     1       0.1933663626E+00      61   17    1      -0.2549547093E+05      0.2549547295E+05      0.3736423709E+05      0.1643587131E+01
          7                17           0            61   17     1       0.1353564515E+00      61   17    1      -0.1718750283E+05      0.1718750579E+05      0.2549547295E+05      0.1643587131E+01
          8                17           0            61   17     1       0.9474951444E-01      61   17    1      -0.1137200712E+05      0.1137201159E+05      0.1718750579E+05      0.1643587131E+01
          9                17           0            61   17     1       0.6632465898E-01      61   17    1      -0.7301200317E+04      0.7301207248E+04      0.1137201159E+05      0.1643587131E+01
         10                17           0            61   17     1       0.4642726050E-01      61   17    1      -0.4451655259E+04      0.4451666603E+04      0.7301207248E+04      0.1643587131E+01
         11                17           0            61   17     1       0.3249908179E-01      61   17    1      -0.2456983384E+04      0.2457003909E+04      0.4451666603E+04      0.1643587131E+01
         12                17           0            61   17     1       0.2274935687E-01      61   17    1      -0.1060717816E+04      0.1060765310E+04      0.2457003909E+04      0.1643587131E+01
         13                17           0            61   17     1       0.1592454954E-01      61   17    1      -0.8333424706E+02      0.8393622211E+02      0.1060765310E+04      0.1643587131E+01
          0                18           2            61   17     1       0.1643584515E+01      61   17    1       0.1497848034E+02      0.1802889243E+02      0.8393622211E+02      0.1643584515E+01
                                                   Max.-Head-Change                        Max.-Flux-Residual
  Residual-Control   Outer-Iter.   Inner-Iter.     Column Row Layer    Max.-Head-Change    Column Row Layer    Max.-Flux-Residual            L2-New               L2-Old           Solver-Max-Delh
          1                18           0            61   17     1       0.1150509141E+01      61   17    1      -0.1641907486E+06      0.1641907490E+06      0.1802889243E+02      0.1643584515E+01
          2                18           0            61   17     1       0.8053563848E+00      61   17    1      -0.1147475890E+06      0.1147475895E+06      0.1641907490E+06      0.1643584515E+01
          3                18           0            61   17     1       0.5637494597E+00      61   17    1      -0.8014027632E+05      0.8014027700E+05      0.1147475895E+06      0.1643584515E+01
          4                18           0            61   17     1       0.3946246151E+00      61   17    1      -0.5591657802E+05      0.5591657897E+05      0.8014027700E+05      0.1643584515E+01
          5                18           0            61   17     1       0.2762372259E+00      61   17    1      -0.3896068540E+05      0.3896068674E+05      0.5591657897E+05      0.1643584515E+01
          6                18           0            61   17     1       0.1933660548E+00      61   17    1      -0.2709190176E+05      0.2709190366E+05      0.3896068674E+05      0.1643584515E+01
          7                18           0            61   17     1       0.1353562361E+00      61   17    1      -0.1878392044E+05      0.1878392316E+05      0.2709190366E+05      0.1643584515E+01
          8                18           0            61   17     1       0.9474936363E-01      61   17    1      -0.1296841548E+05      0.1296841940E+05      0.1878392316E+05      0.1643584515E+01
          9                18           0            61   17     1       0.6632455341E-01      61   17    1      -0.8897602200E+04      0.8897607894E+04      0.1296841940E+05      0.1643584515E+01
         10                18           0            61   17     1       0.4642718660E-01      61   17    1      -0.6048052609E+04      0.6048060968E+04      0.8897607894E+04      0.1643584515E+01
                                                   Max.-Head-Change                        Max.-Flux-Residual
  Residual-Control   Outer-Iter.   Inner-Iter.     Column Row Layer    Max.-Head-Change    Column Row Layer    Max.-Flux-Residual            L2-New               L2-Old           Solver-Max-Delh
         11                18           0            61   17     1       0.3249903006E-01      61   17    1      -0.4053377560E+04      0.4053390015E+04      0.6048060968E+04      0.1643584515E+01
         12                18           0            61   17     1       0.2274932066E-01      61   17    1      -0.2657109770E+04      0.2657128751E+04      0.4053390015E+04      0.1643584515E+01
         13                18           0            61   17     1       0.1592452419E-01      61   17    1      -0.1679724647E+04      0.1679754652E+04      0.2657128751E+04      0.1643584515E+01
         14                18           0            61   17     1       0.1114716674E-01      61   17    1      -0.9955562048E+03      0.9956068055E+03      0.1679754652E+04      0.1643584515E+01
         15                18           0            61   17     1       0.7803016587E-02      61   17    1      -0.5166388589E+03      0.5167363278E+03      0.9956068055E+03      0.1643584515E+01
         16                18           0            61   17     1       0.5462111518E-02      61   17    1      -0.1813969946E+03      0.1816743485E+03      0.5167363278E+03      0.1643584515E+01
          0                19           2            61   17     1       0.1643583617E+01      61   17    1       0.1497848034E+02      0.1802889145E+02      0.1816743485E+03      0.1643583617E+01
          1                19           0            61   17     1       0.1150508513E+01      61   17    1      -0.1647383994E+06      0.1647383998E+06      0.1802889145E+02      0.1643583617E+01
          2                19           0            61   17     1       0.8053559451E+00      61   17    1      -0.1152952129E+06      0.1152952134E+06      0.1647383998E+06      0.1643583617E+01
          3                19           0            61   17     1       0.5637491519E+00      61   17    1      -0.8068788130E+05      0.8068788198E+05      0.1152952134E+06      0.1643583617E+01
                                                   Max.-Head-Change                        Max.-Flux-Residual
  Residual-Control   Outer-Iter.   Inner-Iter.     Column Row Layer    Max.-Head-Change    Column Row Layer    Max.-Flux-Residual            L2-New               L2-Old           Solver-Max-Delh
          4                19           0            61   17     1       0.3946243996E+00      61   17    1      -0.5646416979E+05      0.5646417073E+05      0.8068788198E+05      0.1643583617E+01
          5                19           0            61   17     1       0.2762370750E+00      61   17    1      -0.3950826792E+05      0.3950826924E+05      0.5646417073E+05      0.1643583617E+01
          6                19           0            61   17     1       0.1933659492E+00      61   17    1      -0.2763947781E+05      0.2763947967E+05      0.3950826924E+05      0.1643583617E+01
          7                19           0            61   17     1       0.1353561622E+00      61   17    1      -0.1933149195E+05      0.1933149459E+05      0.2763947967E+05      0.1643583617E+01
          8                19           0            61   17     1       0.9474931190E-01      61   17    1      -0.1351598382E+05      0.1351598758E+05      0.1933149459E+05      0.1643583617E+01
          9                19           0            61   17     1       0.6632451720E-01      61   17    1      -0.9445168317E+04      0.9445173683E+04      0.1351598758E+05      0.1643583617E+01
         10                19           0            61   17     1       0.4642716125E-01      61   17    1      -0.6595617170E+04      0.6595624838E+04      0.9445173683E+04      0.1643583617E+01
         11                19           0            61   17     1       0.3249901232E-01      61   17    1      -0.4600941034E+04      0.4600952010E+04      0.6595624838E+04      0.1643583617E+01
         12                19           0            61   17     1       0.2274930824E-01      61   17    1      -0.3204672481E+04      0.3204688225E+04      0.4600952010E+04      0.1643583617E+01
         13                19           0            61   17     1       0.1592451550E-01      61   17    1      -0.2227286824E+04      0.2227309461E+04      0.3204688225E+04      0.1643583617E+01
                                                   Max.-Head-Change                        Max.-Flux-Residual
  Residual-Control   Outer-Iter.   Inner-Iter.     Column Row Layer    Max.-Head-Change    Column Row Layer    Max.-Flux-Residual            L2-New               L2-Old           Solver-Max-Delh
         14                19           0            61   17     1       0.1114716066E-01      61   17    1      -0.1543118009E+04      0.1543150667E+04      0.2227309461E+04      0.1643583617E+01
         15                19           0            61   17     1       0.7803012327E-02      61   17    1      -0.1064200402E+04      0.1064247741E+04      0.1543150667E+04      0.1643583617E+01
         16                19           0            61   17     1       0.5462108536E-02      61   17    1      -0.7289583547E+03      0.7290274475E+03      0.1064247741E+04      0.1643583617E+01
         17                19           0            61   17     1       0.3823475910E-02      61   17    1      -0.4942890590E+03      0.4943909325E+03      0.7290274475E+03      0.1643583617E+01
         18                19           0            61   17     1       0.2676433091E-02      61   17    1      -0.3300206201E+03      0.3301731651E+03      0.4943909325E+03      0.1643583617E+01
         19                19           0            61   17     1       0.1873503132E-02      61   17    1      -0.2150327468E+03      0.2152667734E+03      0.3301731651E+03      0.1643583617E+01
         20                19           0            61   17     1       0.1311452170E-02      61   17    1      -0.1345412526E+03      0.1349149537E+03      0.2152667734E+03      0.1643583617E+01
         21                19           0            61   17     1       0.9180165034E-03      61   17    1      -0.7819721529E+02      0.7883842201E+02      0.1349149537E+03      0.1643583617E+01
         22                19           0            61   17     1       0.6426115415E-03      61   17    1      -0.3875639359E+02      0.4003433152E+02      0.7883842201E+02      0.1643583617E+01
          0                20           2            60   18     1       0.6609310804E+00      61   17    1      -0.1114782074E+02      0.1499872363E+02      0.4003433152E+02      0.6609310804E+00

    ------------------------------------------------
       NWT REQUIRED           20 OUTER ITERATIONS 
       AND A TOTAL OF         40 INNER ITERATIONS.
    ------------------------------------------------

 OUTPUT CONTROL FOR STRESS PERIOD    1   TIME STEP  133
    SAVE HEAD FOR ALL LAYERS
    SAVE DRAWDOWN FOR ALL LAYERS
    SAVE BUDGET
    PRINT BUDGET
 UBDSV1 SAVING "         STORAGE" ON UNIT   9 AT TIME STEP133, STRESS PERIOD   1
 UBDSV2 SAVING "   CONSTANT HEAD" ON UNIT   9 AT TIME STEP133, STRESS PERIOD   1
 UBDSV1 SAVING "FLOW RIGHT FACE " ON UNIT   9 AT TIME STEP133, STRESS PERIOD   1
 UBDSV1 SAVING "FLOW FRONT FACE " ON UNIT   9 AT TIME STEP133, STRESS PERIOD   1
 UBDSV4 SAVING "   RIVER LEAKAGE" ON UNIT   9 AT TIME STEP133, STRESS PERIOD   1
 UBDSV3 SAVING "        RECHARGE" ON UNIT   9 AT TIME STEP133, STRESS PERIOD   1

 HEAD WILL BE SAVED ON UNIT   37 AT END OF TIME STEP  133, STRESS PERIOD    1

 DRAWDOWN WILL BE SAVED ON UNIT   38 AT END OF TIME STEP  133, STRESS PERIOD    1
1
  VOLUMETRIC BUDGET FOR ENTIRE MODEL AT END OF TIME STEP  133, STRESS PERIOD   1
  ------------------------------------------------------------------------------

     CUMULATIVE VOLUMES      L**3       RATES FOR THIS TIME STEP      L**3/T
     ------------------                 ------------------------

           IN:                                      IN:
           ---                                      ---
             STORAGE =   120472552.0000               STORAGE =      867927.6875
       CONSTANT HEAD =           0.0000         CONSTANT HEAD =           0.0000
       RIVER LEAKAGE =   286285952.0000         RIVER LEAKAGE =      619508.6250
            RECHARGE =      174930.8438              RECHARGE =          58.6777

            TOTAL IN =   406933440.0000              TOTAL IN =     1487495.0000

          OUT:                                     OUT:
          ----                                     ----
             STORAGE =   406192640.0000               STORAGE =     1475390.5000
       CONSTANT HEAD =           0.0000         CONSTANT HEAD =           0.0000
       RIVER LEAKAGE =      797262.8125         RIVER LEAKAGE =       12078.2266
            RECHARGE =           0.0000              RECHARGE =           0.0000

           TOTAL OUT =   406989888.0000             TOTAL OUT =     1487468.7500

            IN - OUT =      -56448.0000              IN - OUT =          26.2500

 PERCENT DISCREPANCY =          -0.01     PERCENT DISCREPANCY =           0.00






         TIME SUMMARY AT END OF TIME STEP  133 IN STRESS PERIOD    1
                    SECONDS     MINUTES      HOURS       DAYS        YEARS
                    -----------------------------------------------------------
   TIME STEP LENGTH  86400.      1440.0      24.000      1.0000     2.73785E-03
 STRESS PERIOD TIME 1.14912E+07 1.91520E+05  3192.0      133.00     0.36413    
         TOTAL TIME 1.14912E+07 1.91520E+05  3192.0      133.00     0.36413    
1
 
 SOLVING FOR HEAD 
                                                   Max.-Head-Change                        Max.-Flux-Residual
  Residual-Control   Outer-Iter.   Inner-Iter.     Column Row Layer    Max.-Head-Change    Column Row Layer    Max.-Flux-Residual            L2-New               L2-Old           Solver-Max-Delh
          0                 1           2            65   15     1       0.2376635220E+04      26  115    1       0.4606697124E+06      0.1589857323E+07      0.1499872363E+02      0.2376635220E+04
          1                 1           0            65   15     1       0.1663644626E+04      65   15    1      -0.8903291171E+08      0.1607815293E+09      0.1589857323E+07      0.2376635220E+04
          2                 1           0            65   15     1       0.1164551218E+04      65   15    1      -0.6239316880E+08      0.1126769732E+09      0.1607815293E+09      0.2376635220E+04
          3                 1           0            65   15     1       0.8151858388E+03      65   15    1      -0.4374534908E+08      0.7901999317E+08      0.1126769732E+09      0.2376635220E+04
          4                 1           0            65   15     1       0.5706300775E+03      65   15    1      -0.3069187550E+08      0.5548300093E+08      0.7901999317E+08      0.2376635220E+04
          5                 1           0            65   15     1       0.3994410474E+03      65   15    1      -0.2155444415E+08      0.3903970749E+08      0.5548300093E+08      0.2376635220E+04
          6                 1           0            65   15     1       0.2796087284E+03      65   15    1      -0.1515824231E+08      0.2757529721E+08      0.3903970749E+08      0.2376635220E+04
          7                 1           0            65   15     1       0.1957261066E+03      65   15    1      -0.1068090656E+08      0.1957283689E+08      0.2757529721E+08      0.2376635220E+04
          8                 1           0            65   15     1       0.1370082723E+03      65   15    1      -0.7546783850E+07      0.1407553951E+08      0.1957283689E+08      0.2376635220E+04
          9                 1           0            65   15     1       0.9590578895E+02      65   15    1      -0.5352905898E+07      0.1024435320E+08      0.1407553951E+08      0.2376635220E+04
                                                   Max.-Head-Change                        Max.-Flux-Residual
  Residual-Control   Outer-Iter.   Inner-Iter.     Column Row Layer    Max.-Head-Change    Column Row Layer    Max.-Flux-Residual            L2-New               L2-Old           Solver-Max-Delh
         10                 1           0            65   15     1       0.6713405112E+02      65   15    1      -0.3817191359E+07      0.7552386846E+07      0.1024435320E+08      0.2376635220E+04
         11                 1           0            65   15     1       0.4699383499E+02      65   15    1      -0.2742195232E+07      0.5744534431E+07      0.7552386846E+07      0.2376635220E+04
         12                 1           0            65   15     1       0.3289568393E+02      64   16    1      -0.2031677897E+07      0.4425389625E+07      0.5744534431E+07      0.2376635220E+04
         13                 1           0            65   15     1       0.2302697836E+02      65   15    1      -0.1211999252E+07      0.2645118723E+07      0.4425389625E+07      0.2376635220E+04
          0                 2           2            68   15     1       0.1676565563E+04      26  115    1       0.4557599919E+06      0.1604968543E+07      0.2645118723E+07      0.1676565563E+04
          1                 2           0            68   15     1       0.1173595874E+04      68   15    1      -0.4554418958E+08      0.6102967047E+08      0.1604968543E+07      0.1676565563E+04
          2                 2           0            68   15     1       0.8215170979E+03      68   15    1      -0.3223574389E+08      0.4254555353E+08      0.6102967047E+08      0.1676565563E+04
          3                 2           0            68   15     1       0.5750619587E+03      68   15    1      -0.2291983206E+08      0.2964296137E+08      0.4254555353E+08      0.1676565563E+04
          4                 2           0            68   15     1       0.4025433643E+03      68   15    1      -0.1639869389E+08      0.2066336334E+08      0.2964296137E+08      0.1676565563E+04
          5                 2           0            68   15     1       0.2817803502E+03      68   15    1      -0.1183390107E+08      0.1445362010E+08      0.2066336334E+08      0.1676565563E+04
                                                   Max.-Head-Change                        Max.-Flux-Residual
  Residual-Control   Outer-Iter.   Inner-Iter.     Column Row Layer    Max.-Head-Change    Column Row Layer    Max.-Flux-Residual            L2-New               L2-Old           Solver-Max-Delh
          6                 2           0            68   15     1       0.1972462418E+03      68   15    1      -0.8638564498E+07      0.1021553576E+08      0.1445362010E+08      0.1676565563E+04
          7                 2           0            68   15     1       0.1380723669E+03      68   15    1      -0.6401828938E+07      0.7305751875E+07      0.1021553576E+08      0.1676565563E+04
          8                 2           0            68   15     1       0.9665065518E+02      68   15    1      -0.4836114072E+07      0.5484986815E+07      0.7305751875E+07      0.1676565563E+04
          9                 2           0            68   15     1       0.6765545747E+02      68   15    1      -0.3740113685E+07      0.4391923835E+07      0.5484986815E+07      0.1676565563E+04
         10                 2           0            68   15     1       0.4735881942E+02      68   15    1      -0.2972913427E+07      0.3450980918E+07      0.4391923835E+07      0.1676565563E+04
         11                 2           0            68   15     1       0.3315117303E+02      68   15    1      -0.2435873256E+07      0.2894570608E+07      0.3450980918E+07      0.1676565563E+04
         12                 2           0            68   15     1       0.2320582073E+02      68   15    1      -0.2059945142E+07      0.2590141978E+07      0.2894570608E+07      0.1676565563E+04
         13                 2           0            68   15     1       0.1624407423E+02      68   15    1      -0.1796795467E+07      0.2393062878E+07      0.2590141978E+07      0.1676565563E+04
         14                 2           0            68   15     1       0.1137085177E+02      68   15    1      -0.1287949625E+07      0.2044551446E+07      0.2393062878E+07      0.1676565563E+04
         15                 2           0            68   15     1       0.7959596103E+01      68   15    1      -0.7986345584E+06      0.1781972904E+07      0.2044551446E+07      0.1676565563E+04
                                                   Max.-Head-Change                        Max.-Flux-Residual
  Residual-Control   Outer-Iter.   Inner-Iter.     Column Row Layer    Max.-Head-Change    Column Row Layer    Max.-Flux-Residual            L2-New               L2-Old           Solver-Max-Delh
          0                 3           2            68   14     1       0.5617962237E+03      68   15    1      -0.4563973782E+06      0.1660513026E+07      0.1781972904E+07      0.5617962237E+03
          1                 3           0            68   14     1       0.3932573499E+03      69   14    1      -0.4023378658E+08      0.4081733054E+08      0.1660513026E+07      0.5617962237E+03
          2                 3           0            68   14     1       0.2752801402E+03      69   14    1      -0.2744188322E+08      0.2796236429E+08      0.4081733054E+08      0.5617962237E+03
          3                 3           0            68   14     1       0.1926960949E+03      69   14    1      -0.1848756023E+08      0.1899659086E+08      0.2796236429E+08      0.5617962237E+03
          4                 3           0            68   14     1       0.1348872641E+03      69   14    1      -0.1221953492E+08      0.1277126727E+08      0.1899659086E+08      0.5617962237E+03
          5                 3           0            68   14     1       0.9442108328E+02      69   14    1      -0.7831922502E+07      0.8496476334E+07      0.1277126727E+08      0.5617962237E+03
          6                 3           0            68   14     1       0.6609475717E+02      69   14    1      -0.4760593860E+07      0.5642850526E+07      0.8496476334E+07      0.5617962237E+03
          7                 3           0            68   14     1       0.4626632923E+02      69   14    1      -0.2610663847E+07      0.3715255599E+07      0.5642850526E+07      0.5617962237E+03
          8                 3           0            68   14     1       0.3238642991E+02      68   14    1      -0.1877780870E+07      0.2702362404E+07      0.3715255599E+07      0.5617962237E+03
          9                 3           0            68   14     1       0.2267050055E+02      68   14    1      -0.1752658422E+07      0.2374506630E+07      0.2702362404E+07      0.5617962237E+03
                                                   Max.-Head-Change                        Max.-Flux-Residual
  Residual-Control   Outer-Iter.   Inner-Iter.     Column Row Layer    Max.-Head-Change    Column Row Layer    Max.-Flux-Residual            L2-New               L2-Old           Solver-Max-Delh
         10                 3           0            68   14     1       0.1586935012E+02      68   14    1      -0.1104939037E+07      0.1934533906E+07      0.2374506630E+07      0.5617962237E+03
          0                 4           2            69   14     1       0.3379961412E+03      68   15    1      -0.4441499921E+06      0.1664206993E+07      0.1934533906E+07      0.3379961412E+03
          1                 4           0            69   14     1       0.2365972948E+03      69   14    1      -0.4121444404E+08      0.4127295245E+08      0.1664206993E+07      0.3379961412E+03
          2                 4           0            69   14     1       0.1656181036E+03      69   14    1      -0.2848968123E+08      0.2855776891E+08      0.4127295245E+08      0.3379961412E+03
          3                 4           0            69   14     1       0.1159326705E+03      69   14    1      -0.1958235842E+08      0.1967512353E+08      0.2855776891E+08      0.3379961412E+03
          4                 4           0            69   14     1       0.8115286798E+02      69   14    1      -0.1334723694E+08      0.1348369008E+08      0.1967512353E+08      0.3379961412E+03
          5                 4           0            69   14     1       0.5680700662E+02      69   14    1      -0.8982658215E+07      0.9190521720E+07      0.1348369008E+08      0.3379961412E+03
          6                 4           0            69   14     1       0.3976490395E+02      69   14    1      -0.5927453540E+07      0.6249456972E+07      0.9190521720E+07      0.3379961412E+03
          7                 4           0            69   14     1       0.2783543229E+02      69   14    1      -0.3788810220E+07      0.4289678577E+07      0.6249456972E+07      0.3379961412E+03
          8                 4           0            69   14     1       0.1948480227E+02      69   14    1      -0.2291759879E+07      0.2822685690E+07      0.4289678577E+07      0.3379961412E+03
                                                   Max.-Head-Change                        Max.-Flux-Residual
  Residual-Control   Outer-Iter.   Inner-Iter.     Column Row Layer    Max.-Head-Change    Column Row Layer    Max.-Flux-Residual            L2-New               L2-Old           Solver-Max-Delh
          9                 4           0            69   14     1       0.1363936136E+02      69   14    1      -0.1330955973E+07      0.2052350721E+07      0.2822685690E+07      0.3379961412E+03
          0                 5           2            64   15     1       0.2354267771E+03      69   14    1      -0.7439833512E+06      0.1757314151E+07      0.2052350721E+07      0.2354267771E+03
          1                 5           0            64   15     1       0.1647987412E+03      64   15    1      -0.2222288412E+07      0.2232211201E+07      0.1757314151E+07      0.2354267771E+03
          2                 5           0            64   15     1       0.1153591169E+03      64   15    1      -0.1951708302E+07      0.2017474658E+07      0.2232211201E+07      0.2354267771E+03
          3                 5           0            64   15     1       0.8075138043E+02      64   15    1      -0.1762302228E+07      0.1968599115E+07      0.2017474658E+07      0.2354267771E+03
          0                 6           2            28  114     1       0.7483008544E+03      64   15    1      -0.1629717979E+07      0.1984958096E+07      0.1968599115E+07      0.7483008544E+03
          1                 6           0            28  114     1       0.5238105891E+03      28  114    1      -0.4243266226E+09      0.4243266366E+09      0.1984958096E+07      0.7483008544E+03
          2                 6           0            28  114     1       0.3666674062E+03      28  114    1      -0.2969411094E+09      0.2969412664E+09      0.4243266366E+09      0.7483008544E+03
          3                 6           0            28  114     1       0.2566671799E+03      28  114    1      -0.2077712517E+09      0.2077719575E+09      0.2969412664E+09      0.7483008544E+03
          4                 6           0            28  114     1       0.1796670229E+03      28  114    1      -0.1453523524E+09      0.1453540842E+09      0.2077719575E+09      0.7483008544E+03
                                                   Max.-Head-Change                        Max.-Flux-Residual
  Residual-Control   Outer-Iter.   Inner-Iter.     Column Row Layer    Max.-Head-Change    Column Row Layer    Max.-Flux-Residual            L2-New               L2-Old           Solver-Max-Delh
          5                 6           0            28  114     1       0.1257669139E+03      28  114    1      -0.1016591236E+09      0.1016624925E+09      0.1453540842E+09      0.7483008544E+03
          6                 6           0            28  114     1       0.8803683822E+02      28  114    1      -0.7107386397E+08      0.7108588294E+08      0.1016624925E+09      0.7483008544E+03
          7                 6           0            28  114     1       0.6162578571E+02      28  114    1      -0.4966418260E+08      0.4969471129E+08      0.7108588294E+08      0.7483008544E+03
          8                 6           0            28  114     1       0.4313804926E+02      28  114    1      -0.3467740589E+08      0.3472459213E+08      0.4969471129E+08      0.7483008544E+03
          9                 6           0            28  114     1       0.3019663397E+02      28  114    1      -0.2418666237E+08      0.2425786589E+08      0.3472459213E+08      0.7483008544E+03
         10                 6           0            28  114     1       0.2113764342E+02      28  114    1      -0.1684359535E+08      0.1694936750E+08      0.2425786589E+08      0.7483008544E+03
         11                 6           0            28  114     1       0.1479635014E+02      28  114    1      -0.1170413869E+08      0.1185959599E+08      0.1694936750E+08      0.7483008544E+03
         12                 6           0            28  114     1       0.1035744492E+02      28  114    1      -0.8106519130E+07      0.8333163755E+07      0.1185959599E+08      0.7483008544E+03
         13                 6           0            28  114     1       0.7250211322E+01      28  114    1      -0.5588194303E+07      0.5915925014E+07      0.8333163755E+07      0.7483008544E+03
         14                 6           0            28  114     1       0.5075147839E+01      28  114    1      -0.3825413072E+07      0.4293623079E+07      0.5915925014E+07      0.7483008544E+03
                                                   Max.-Head-Change                        Max.-Flux-Residual
  Residual-Control   Outer-Iter.   Inner-Iter.     Column Row Layer    Max.-Head-Change    Column Row Layer    Max.-Flux-Residual            L2-New               L2-Old           Solver-Max-Delh
         15                 6           0            28  114     1       0.3552603427E+01      28  114    1      -0.2591477707E+07      0.3246391882E+07      0.4293623079E+07      0.7483008544E+03
         16                 6           0            28  114     1       0.2486822356E+01      28  114    1      -0.1727722975E+07      0.2612219452E+07      0.3246391882E+07      0.7483008544E+03
         17                 6           0            28  114     1       0.1740775620E+01      64   15    1      -0.1624572751E+07      0.2260702545E+07      0.2612219452E+07      0.7483008544E+03
          0                 7           2            64   15     1      -0.4032379328E+03      64   15    1      -0.1626116320E+07      0.2084893186E+07      0.2260702545E+07     -0.4032379328E+03
          0                 8           2            64   15     1       0.1819023706E+03      28  114    1      -0.3499075869E+05      0.1000828275E+06      0.2084893186E+07      0.1819023706E+03
          1                 8           0            64   15     1       0.1273316572E+03      47   51    1      -0.2556510548E+07      0.2556516403E+07      0.1000828275E+06      0.1819023706E+03
          2                 8           0            64   15     1       0.8913215855E+02      47   51    1      -0.1787993506E+07      0.1788307979E+07      0.2556516403E+07      0.1819023706E+03
          3                 8           0            64   15     1       0.6239250992E+02      47   51    1      -0.1250031528E+07      0.1251174720E+07      0.1788307979E+07      0.1819023706E+03
          4                 8           0            64   15     1       0.4367475620E+02      47   51    1      -0.8734581495E+06      0.8760578286E+06      0.1251174720E+07      0.1819023706E+03
          5                 8           0            64   15     1       0.3057232882E+02      47   51    1      -0.6098567891E+06      0.6147260979E+06      0.8760578286E+06      0.1819023706E+03
                                                   Max.-Head-Change                        Max.-Flux-Residual
  Residual-Control   Outer-Iter.   Inner-Iter.     Column Row Layer    Max.-Head-Change    Column Row Layer    Max.-Flux-Residual            L2-New               L2-Old           Solver-Max-Delh
          6                 8           0            64   15     1       0.2140062981E+02      47   51    1      -0.4253358400E+06      0.4335639135E+06      0.6147260979E+06      0.1819023706E+03
          7                 8           0            64   15     1       0.1498044061E+02      47   51    1      -0.2961711778E+06      0.3092139019E+06      0.4335639135E+06      0.1819023706E+03
          8                 8           0            64   15     1       0.1048630825E+02      47   51    1      -0.2057559159E+06      0.2254747639E+06      0.3092139019E+06      0.1819023706E+03
          9                 8           0            64   15     1       0.7340415650E+01      47   51    1      -0.1424652335E+06      0.1709923110E+06      0.2254747639E+06      0.1819023706E+03
         10                 8           0            64   15     1       0.5138290867E+01      47   51    1      -0.9816175669E+05      0.1374459347E+06      0.1709923110E+06      0.1819023706E+03
         11                 8           0            64   15     1       0.3596803546E+01      47   51    1      -0.6714932341E+05      0.1182685219E+06      0.1374459347E+06      0.1819023706E+03
          0                 9           2            64   15     1       0.1818362000E+03      47   51    1      -0.4544062049E+05      0.1081700912E+06      0.1182685219E+06      0.1818362000E+03
          0                10           2            64   15     1       0.1784453072E+03      47   51    1      -0.2272029874E+04      0.5843431789E+04      0.1081700912E+06      0.1784453072E+03
          1                10           0            64   15     1       0.1249117129E+03      64   15    1      -0.1475327742E+07      0.1475327767E+07      0.5843431789E+04      0.1784453072E+03
          0                11           2            64   15     1       0.1762740431E+03      64   15    1       0.2144491943E+04      0.2813299693E+04      0.1475327767E+07      0.1762740431E+03
                                                   Max.-Head-Change                        Max.-Flux-Residual
  Residual-Control   Outer-Iter.   Inner-Iter.     Column Row Layer    Max.-Head-Change    Column Row Layer    Max.-Flux-Residual            L2-New               L2-Old           Solver-Max-Delh
          1                11           0            64   15     1       0.1233918280E+03      64   15    1      -0.1945553284E+07      0.1945553287E+07      0.2813299693E+04      0.1762740431E+03
          2                11           0            64   15     1       0.8637427815E+02      64   15    1      -0.1742958553E+07      0.1742958659E+07      0.1945553287E+07      0.1762740431E+03
          3                11           0            64   15     1       0.6046199368E+02      64   15    1      -0.1601142244E+07      0.1601142538E+07      0.1742958659E+07      0.1762740431E+03
          4                11           0            64   15     1       0.4232339485E+02      64   15    1      -0.1501870829E+07      0.1501871329E+07      0.1601142538E+07      0.1762740431E+03
          5                11           0            64   15     1       0.2962637589E+02      64   15    1      -0.1432380840E+07      0.1432381528E+07      0.1501871329E+07      0.1762740431E+03
          6                11           0            64   15     1       0.2073846277E+02      64   15    1      -0.1311119535E+07      0.1311120427E+07      0.1432381528E+07      0.1762740431E+03
          7                11           0            64   15     1       0.1451692369E+02      64   15    1      -0.4187145820E+06      0.4187177045E+06      0.1311120427E+07      0.1762740431E+03
          0                12           2            64   15     1       0.1760200624E+03      64   15    1       0.2144491943E+04      0.2723261820E+04      0.4187177045E+06      0.1760200624E+03
          1                12           0            64   15     1       0.1232140416E+03      64   15    1      -0.2000195418E+07      0.2000195421E+07      0.2723261820E+04      0.1760200624E+03
          2                12           0            64   15     1       0.8624982764E+02      64   15    1      -0.1797892592E+07      0.1797892679E+07      0.2000195421E+07      0.1760200624E+03
                                                   Max.-Head-Change                        Max.-Flux-Residual
  Residual-Control   Outer-Iter.   Inner-Iter.     Column Row Layer    Max.-Head-Change    Column Row Layer    Max.-Flux-Residual            L2-New               L2-Old           Solver-Max-Delh
          3                12           0            64   15     1       0.6037487832E+02      64   15    1      -0.1656280615E+07      0.1656280857E+07      0.1797892679E+07      0.1760200624E+03
          4                12           0            64   15     1       0.4226241411E+02      64   15    1      -0.1557152234E+07      0.1557152643E+07      0.1656280857E+07      0.1760200624E+03
          5                12           0            64   15     1       0.2958368937E+02      64   15    1      -0.1487762368E+07      0.1487762930E+07      0.1557152643E+07      0.1760200624E+03
          6                12           0            64   15     1       0.2070858221E+02      64   15    1      -0.1439189462E+07      0.1439190152E+07      0.1487762930E+07      0.1760200624E+03
          7                12           0            64   15     1       0.1449600730E+02      64   15    1      -0.1405188429E+07      0.1405189218E+07      0.1439190152E+07      0.1760200624E+03
          8                12           0            64   15     1       0.1014720494E+02      64   15    1      -0.1249474719E+07      0.1249475676E+07      0.1405189218E+07      0.1760200624E+03
          9                12           0            64   15     1       0.7103043334E+01      64   15    1      -0.8126818744E+06      0.8126834217E+06      0.1249475676E+07      0.1760200624E+03
         10                12           0            64   15     1       0.4972130249E+01      64   15    1      -0.5071526196E+06      0.5071551869E+06      0.8126834217E+06      0.1760200624E+03
         11                12           0            64   15     1       0.3480491115E+01      64   15    1      -0.2933927531E+06      0.2933972987E+06      0.5071551869E+06      0.1760200624E+03
         12                12           0            64   15     1       0.2436343739E+01      64   15    1      -0.1438150472E+06      0.1438244759E+06      0.2933972987E+06      0.1760200624E+03
                                                   Max.-Head-Change                        Max.-Flux-Residual
  Residual-Control   Outer-Iter.   Inner-Iter.     Column Row Layer    Max.-Head-Change    Column Row Layer    Max.-Flux-Residual            L2-New               L2-Old           Solver-Max-Delh
         13                12           0            64   15     1       0.1705440588E+01      64   15    1      -0.3913721189E+05      0.3917224719E+05      0.1438244759E+06      0.1760200624E+03
          0                13           2            64   15     1       0.1759921616E+03      64   15    1       0.2144491943E+04      0.2713767584E+04      0.3917224719E+05      0.1759921616E+03
          1                13           0            64   15     1       0.1231945110E+03      64   15    1      -0.2006622167E+07      0.2006622170E+07      0.2713767584E+04      0.1759921616E+03
          2                13           0            64   15     1       0.8623615622E+02      64   15    1      -0.1804351407E+07      0.1804351493E+07      0.2006622170E+07      0.1759921616E+03
          3                13           0            64   15     1       0.6036530833E+02      64   15    1      -0.1662761878E+07      0.1662762115E+07      0.1804351493E+07      0.1759921616E+03
          4                13           0            64   15     1       0.4225571511E+02      64   15    1      -0.1563649209E+07      0.1563649610E+07      0.1662762115E+07      0.1759921616E+03
          5                13           0            64   15     1       0.2957900007E+02      64   15    1      -0.1494270342E+07      0.1494270892E+07      0.1563649610E+07      0.1759921616E+03
          6                13           0            64   15     1       0.2070529970E+02      64   15    1      -0.1445705136E+07      0.1445705810E+07      0.1494270892E+07      0.1759921616E+03
          7                13           0            64   15     1       0.1449370954E+02      64   15    1      -0.1411709492E+07      0.1411710263E+07      0.1445705810E+07      0.1759921616E+03
          8                13           0            64   15     1       0.1014559651E+02      64   15    1      -0.1387912542E+07      0.1387913387E+07      0.1411710263E+07      0.1759921616E+03
                                                   Max.-Head-Change                        Max.-Flux-Residual
  Residual-Control   Outer-Iter.   Inner-Iter.     Column Row Layer    Max.-Head-Change    Column Row Layer    Max.-Flux-Residual            L2-New               L2-Old           Solver-Max-Delh
          9                13           0            64   15     1       0.7101917434E+01      64   15    1      -0.9837692363E+06      0.9837704908E+06      0.1387913387E+07      0.1759921616E+03
         10                13           0            64   15     1       0.4971342119E+01      64   15    1      -0.6781843654E+06      0.6781862497E+06      0.9837704908E+06      0.1759921616E+03
         11                13           0            64   15     1       0.3479939424E+01      64   15    1      -0.4643855327E+06      0.4643883514E+06      0.6781862497E+06      0.1759921616E+03
         12                13           0            64   15     1       0.2435957555E+01      64   15    1      -0.3147805332E+06      0.3147847613E+06      0.4643883514E+06      0.1759921616E+03
         13                13           0            64   15     1       0.1705170260E+01      64   15    1      -0.2100835840E+06      0.2100899929E+06      0.3147847613E+06      0.1759921616E+03
         14                13           0            64   15     1       0.1193619161E+01      64   15    1      -0.1368087296E+06      0.1368186505E+06      0.2100899929E+06      0.1759921616E+03
         15                13           0            64   15     1       0.8355333988E+00      64   15    1      -0.8552270677E+05      0.8553866548E+05      0.1368186505E+06      0.1759921616E+03
         16                13           0            64   15     1       0.5848733692E+00      64   15    1      -0.4962561479E+05      0.4965322041E+05      0.8553866548E+05      0.1759921616E+03
         17                13           0            64   15     1       0.4094113515E+00      64   15    1      -0.2449918131E+05      0.2455520442E+05      0.4965322041E+05      0.1759921616E+03
         18                13           0            64   15     1       0.2865879411E+00      64   15    1      -0.6911428102E+04      0.7107833139E+04      0.2455520442E+05      0.1759921616E+03
                                                   Max.-Head-Change                        Max.-Flux-Residual
  Residual-Control   Outer-Iter.   Inner-Iter.     Column Row Layer    Max.-Head-Change    Column Row Layer    Max.-Flux-Residual            L2-New               L2-Old           Solver-Max-Delh
          0                14           2            64   15     1       0.1759892539E+03      64   15    1       0.2144491943E+04      0.2712191879E+04      0.7107833139E+04      0.1759892539E+03
          1                14           0            64   15     1       0.1231924756E+03      64   15    1      -0.2007708962E+07      0.2007708965E+07      0.2712191879E+04      0.1759892539E+03
          2                14           0            64   15     1       0.8623473148E+02      64   15    1      -0.1805441544E+07      0.1805441630E+07      0.2007708965E+07      0.1759892539E+03
          3                14           0            64   15     1       0.6036431101E+02      64   15    1      -0.1663854354E+07      0.1663854590E+07      0.1805441630E+07      0.1759892539E+03
          4                14           0            64   15     1       0.4225501699E+02      64   15    1      -0.1564743323E+07      0.1564743722E+07      0.1663854590E+07      0.1759892539E+03
          5                14           0            64   15     1       0.2957851139E+02      64   15    1      -0.1495365602E+07      0.1495366150E+07      0.1564743722E+07      0.1759892539E+03
          6                14           0            64   15     1       0.2070495762E+02      64   15    1      -0.1446801198E+07      0.1446801869E+07      0.1495366150E+07      0.1759892539E+03
          7                14           0            64   15     1       0.1449347009E+02      64   15    1      -0.1412806116E+07      0.1412806884E+07      0.1446801869E+07      0.1759892539E+03
          8                14           0            64   15     1       0.1014542889E+02      64   15    1      -0.1389009559E+07      0.1389010401E+07      0.1412806884E+07      0.1759892539E+03
          9                14           0            64   15     1       0.7101800100E+01      64   15    1      -0.1012535356E+07      0.1012536571E+07      0.1389010401E+07      0.1759892539E+03
                                                   Max.-Head-Change                        Max.-Flux-Residual
  Residual-Control   Outer-Iter.   Inner-Iter.     Column Row Layer    Max.-Head-Change    Column Row Layer    Max.-Flux-Residual            L2-New               L2-Old           Solver-Max-Delh
         10                14           0            64   15     1       0.4971259985E+01      64   15    1      -0.7069380442E+06      0.7069398462E+06      0.1012536571E+07      0.1759892539E+03
         11                14           0            64   15     1       0.3479881931E+01      64   15    1      -0.4931304995E+06      0.4931331456E+06      0.7069398462E+06      0.1759892539E+03
         12                14           0            64   15     1       0.2435917310E+01      64   15    1      -0.3435193999E+06      0.3435232622E+06      0.4931331456E+06      0.1759892539E+03
         13                14           0            64   15     1       0.1705142088E+01      64   15    1      -0.2388181797E+06      0.2388237998E+06      0.3435232622E+06      0.1759892539E+03
         14                14           0            64   15     1       0.1193599441E+01      64   15    1      -0.1655403351E+06      0.1655485086E+06      0.2388237998E+06      0.1759892539E+03
         15                14           0            64   15     1       0.8355195946E+00      64   15    1      -0.1142522190E+06      0.1142641280E+06      0.1655485086E+06      0.1759892539E+03
         16                14           0            64   15     1       0.5848637063E+00      64   15    1      -0.7835366159E+05      0.7837109406E+05      0.1142641280E+06      0.1759892539E+03
         17                14           0            64   15     1       0.4094045874E+00      64   15    1      -0.5322620226E+05      0.5325193151E+05      0.7837109406E+05      0.1759892539E+03
         18                14           0            64   15     1       0.2865832063E+00      64   15    1      -0.3563773095E+05      0.3567622076E+05      0.5325193151E+05      0.1759892539E+03
         19                14           0            64   15     1       0.2006082410E+00      64   15    1      -0.2332616869E+05      0.2338500994E+05      0.3567622076E+05      0.1759892539E+03
                                                   Max.-Head-Change                        Max.-Flux-Residual
  Residual-Control   Outer-Iter.   Inner-Iter.     Column Row Layer    Max.-Head-Change    Column Row Layer    Max.-Flux-Residual            L2-New               L2-Old           Solver-Max-Delh
         20                14           0            64   15     1       0.1404257663E+00      64   15    1      -0.1470825531E+05      0.1480148297E+05      0.2338500994E+05      0.1759892539E+03
         21                14           0            64   15     1       0.9829803474E-01      64   15    1      -0.8675804271E+04      0.8833035171E+04      0.1480148297E+05      0.1759892539E+03
         22                14           0            64   15     1       0.6880862315E-01      64   15    1      -0.4453131848E+04      0.4752323516E+04      0.8833035171E+04      0.1759892539E+03
          0                15           2            60   18     1       0.1274432961E+01      64   15    1      -0.1497282384E+04      0.2235382681E+04      0.4752323516E+04      0.1274432961E+01
          0                16           2            60   18     1       0.1274270438E+01      64   15    1      -0.4279494843E+03      0.4363178062E+03      0.2235382681E+04      0.1274270438E+01
          0                17           2            60   18     1       0.1274107977E+01      64   15    1      -0.1223109325E+03      0.1238658014E+03      0.4363178062E+03      0.1274107977E+01
          0                18           2            60   18     1       0.1273945578E+01      64   15    1      -0.3495607124E+02      0.3984496762E+02      0.1238658014E+03      0.1273945578E+01
          0                19           2            60   18     1       0.1273783241E+01      60   18    1       0.1159133911E+02      0.2157408111E+02      0.3984496762E+02      0.1273783241E+01
          0                20           2            60   18     1       0.1273620967E+01      60   18    1       0.1159133911E+02      0.1933341478E+02      0.2157408111E+02      0.1273620967E+01
          0                21           2            60   18     1       0.1273458754E+01      60   18    1       0.1159133911E+02      0.1913858488E+02      0.1933341478E+02      0.1273458754E+01
                                                   Max.-Head-Change                        Max.-Flux-Residual
  Residual-Control   Outer-Iter.   Inner-Iter.     Column Row Layer    Max.-Head-Change    Column Row Layer    Max.-Flux-Residual            L2-New               L2-Old           Solver-Max-Delh
          0                22           2            60   18     1       0.1273296603E+01      60   18    1       0.1159133911E+02      0.1912233401E+02      0.1913858488E+02      0.1273296603E+01
          0                23           2            60   18     1       0.1273134515E+01      60   18    1       0.1159133911E+02      0.1912075524E+02      0.1912233401E+02      0.1273134515E+01
          0                24           2            60   18     1       0.1272972399E+01      60   18    1       0.1159133911E+02      0.1912037676E+02      0.1912075524E+02      0.1272972399E+01
          0                25           2            60   18     1       0.1272810272E+01      60   18    1       0.1159133911E+02      0.1912009783E+02      0.1912037676E+02      0.1272810272E+01
          0                26           2            60   18     1       0.1272648208E+01      60   18    1       0.1159133911E+02      0.1911982853E+02      0.1912009783E+02      0.1272648208E+01
          0                27           2            60   18     1       0.1272486205E+01      60   18    1       0.1159133911E+02      0.1911956149E+02      0.1911982853E+02      0.1272486205E+01
          0                28           2            60   18     1       0.1272324263E+01      60   18    1       0.1159133911E+02      0.1911929608E+02      0.1911956149E+02      0.1272324263E+01
          0                29           2            60   18     1       0.1272162384E+01      60   18    1       0.1159133911E+02      0.1911903222E+02      0.1911929608E+02      0.1272162384E+01
          1                29           0            60   18     1       0.8905136538E+00      61   15    1      -0.5367262107E+05      0.6086232097E+05      0.1911903222E+02      0.1272162384E+01
          2                29           0            60   18     1       0.6233595470E+00      61   15    1      -0.2611053461E+05      0.2611054067E+05      0.6086232097E+05      0.1272162384E+01
                                                   Max.-Head-Change                        Max.-Flux-Residual
  Residual-Control   Outer-Iter.   Inner-Iter.     Column Row Layer    Max.-Head-Change    Column Row Layer    Max.-Flux-Residual            L2-New               L2-Old           Solver-Max-Delh
          3                29           0            60   18     1       0.4363516755E+00      61   15    1      -0.6817976511E+04      0.6817998566E+04      0.2611054067E+05      0.1272162384E+01
          0                30           2            60   18     1       0.1272106876E+01      60   18    1       0.1159133911E+02      0.1911894215E+02      0.6817998566E+04      0.1272106876E+01
          1                30           0            60   18     1       0.8904747982E+00      61   15    1      -0.8518423849E+05      0.1131213097E+06      0.1911894215E+02      0.1272106876E+01
          2                30           0            60   18     1       0.6233323481E+00      61   15    1      -0.5762128558E+05      0.6699405843E+05      0.1131213097E+06      0.1272106876E+01
          3                30           0            60   18     1       0.4363326362E+00      61   15    1      -0.3832812091E+05      0.3903543558E+05      0.6699405843E+05      0.1272106876E+01
          4                30           0            60   18     1       0.3054328402E+00      61   15    1      -0.2482334786E+05      0.2482335421E+05      0.3903543558E+05      0.1272106876E+01
          5                30           0            60   18     1       0.2138029845E+00      61   15    1      -0.1537022347E+05      0.1537023347E+05      0.2482335421E+05      0.1272106876E+01
          6                30           0            60   18     1       0.1496620866E+00      61   15    1      -0.8753142635E+04      0.8753159897E+04      0.1537023347E+05      0.1272106876E+01
          7                30           0            60   18     1       0.1047634588E+00      61   15    1      -0.4121238128E+04      0.4121274373E+04      0.8753159897E+04      0.1272106876E+01
          8                30           0            60   18     1       0.7333441993E-01      61   15    1      -0.8789305080E+03      0.8790991175E+03      0.4121274373E+04      0.1272106876E+01
                                                   Max.-Head-Change                        Max.-Flux-Residual
  Residual-Control   Outer-Iter.   Inner-Iter.     Column Row Layer    Max.-Head-Change    Column Row Layer    Max.-Flux-Residual            L2-New               L2-Old           Solver-Max-Delh
          0                31           2            60   18     1       0.1272097548E+01      60   18    1       0.1159133911E+02      0.1911892703E+02      0.8790991175E+03      0.1272097548E+01
          1                31           0            60   18     1       0.8904682683E+00      61   15    1      -0.9048042354E+05      0.1227424185E+06      0.1911892703E+02      0.1272097548E+01
          2                31           0            60   18     1       0.6233277772E+00      61   15    1      -0.6291732501E+05      0.7538598692E+05      0.1227424185E+06      0.1272097548E+01
          3                31           0            60   18     1       0.4363294366E+00      61   15    1      -0.4362405840E+05      0.4604950139E+05      0.7538598692E+05      0.1272097548E+01
          4                31           0            60   18     1       0.3054306004E+00      61   15    1      -0.3011921400E+05      0.3011921930E+05      0.4604950139E+05      0.1272097548E+01
          5                31           0            60   18     1       0.2138014167E+00      61   15    1      -0.2066603965E+05      0.2066604719E+05      0.3011921930E+05      0.1272097548E+01
          6                31           0            60   18     1       0.1496609891E+00      61   15    1      -0.1404892384E+05      0.1404893474E+05      0.2066604719E+05      0.1272097548E+01
          7                31           0            60   18     1       0.1047626906E+00      61   15    1      -0.9416994852E+04      0.9417010924E+04      0.1404893474E+05      0.1272097548E+01
          8                31           0            60   18     1       0.7333388217E-01      61   15    1      -0.6174670096E+04      0.6174694410E+04      0.9417010924E+04      0.1272097548E+01
          9                31           0            60   18     1       0.5133371664E-01      61   15    1      -0.3905055291E+04      0.3905093523E+04      0.6174694410E+04      0.1272097548E+01
                                                   Max.-Head-Change                        Max.-Flux-Residual
  Residual-Control   Outer-Iter.   Inner-Iter.     Column Row Layer    Max.-Head-Change    Column Row Layer    Max.-Flux-Residual            L2-New               L2-Old           Solver-Max-Delh
         10                31           0            60   18     1       0.3593360104E-01      61   15    1      -0.2316331072E+04      0.2316395278E+04      0.3905093523E+04      0.1272097548E+01
         11                31           0            60   18     1       0.2515352030E-01      61   15    1      -0.1204227136E+04      0.1204350301E+04      0.2316395278E+04      0.1272097548E+01
         12                31           0            60   18     1       0.1760746391E-01      61   15    1      -0.4257558623E+03      0.4261034533E+03      0.1204350301E+04      0.1272097548E+01
          0                32           2            60   18     1       0.1272095308E+01      60   18    1       0.1159133911E+02      0.1911892341E+02      0.4261034533E+03      0.1272095308E+01
          1                32           0            60   18     1       0.8904667005E+00      61   15    1      -0.9175203909E+05      0.1250763551E+06      0.1911892341E+02      0.1272095308E+01
          2                32           0            60   18     1       0.6233266798E+00      61   15    1      -0.6418890561E+05      0.7742330857E+05      0.1250763551E+06      0.1272095308E+01
          3                32           0            60   18     1       0.4363286684E+00      61   15    1      -0.4489561452E+05      0.4783601809E+05      0.7742330857E+05      0.1272095308E+01
          4                32           0            60   18     1       0.3054300627E+00      61   15    1      -0.3139075298E+05      0.3139075809E+05      0.4783601809E+05      0.1272095308E+01
          5                32           0            60   18     1       0.2138010402E+00      61   15    1      -0.2193756664E+05      0.2193757376E+05      0.3139075809E+05      0.1272095308E+01
          6                32           0            60   18     1       0.1496607256E+00      61   15    1      -0.1532044243E+05      0.1532045246E+05      0.2193757376E+05      0.1272095308E+01
                                                   Max.-Head-Change                        Max.-Flux-Residual
  Residual-Control   Outer-Iter.   Inner-Iter.     Column Row Layer    Max.-Head-Change    Column Row Layer    Max.-Flux-Residual            L2-New               L2-Old           Solver-Max-Delh
          7                32           0            60   18     1       0.1047625061E+00      61   15    1      -0.1068850757E+05      0.1068852177E+05      0.1532045246E+05      0.1272095308E+01
          8                32           0            60   18     1       0.7333375305E-01      61   15    1      -0.7446178698E+04      0.7446198924E+04      0.1068852177E+05      0.1272095308E+01
          9                32           0            60   18     1       0.5133362626E-01      61   15    1      -0.5176561013E+04      0.5176589944E+04      0.7446198924E+04      0.1272095308E+01
         10                32           0            60   18     1       0.3593353777E-01      61   15    1      -0.3587834778E+04      0.3587876358E+04      0.5176589944E+04      0.1272095308E+01
         11                32           0            60   18     1       0.2515347601E-01      61   15    1      -0.2475729430E+04      0.2475789526E+04      0.3587876358E+04      0.1272095308E+01
         12                32           0            60   18     1       0.1760743291E-01      61   15    1      -0.1697257169E+04      0.1697344662E+04      0.2475789526E+04      0.1272095308E+01
         13                32           0            60   18     1       0.1232520283E-01      61   15    1      -0.1152327315E+04      0.1152456011E+04      0.1697344662E+04      0.1272095308E+01
         14                32           0            60   18     1       0.8627641832E-02      61   15    1      -0.7708767766E+03      0.7710689647E+03      0.1152456011E+04      0.1272095308E+01
         15                32           0            60   18     1       0.6039349179E-02      61   15    1      -0.5038615770E+03      0.5041553756E+03      0.7710689647E+03      0.1272095308E+01
         16                32           0            60   18     1       0.4227544353E-02      61   15    1      -0.3169510251E+03      0.3174176645E+03      0.5041553756E+03      0.1272095308E+01
                                                   Max.-Head-Change                        Max.-Flux-Residual
  Residual-Control   Outer-Iter.   Inner-Iter.     Column Row Layer    Max.-Head-Change    Column Row Layer    Max.-Flux-Residual            L2-New               L2-Old           Solver-Max-Delh
         17                32           0            60   18     1       0.2959280997E-02      61   15    1      -0.1861136825E+03      0.1869070133E+03      0.3174176645E+03      0.1272095308E+01
         18                32           0            60   18     1       0.2071496663E-02      61   15    1      -0.9452756452E+02      0.9607978183E+02      0.1869070133E+03      0.1272095308E+01
         19                32           0            60   18     1       0.1450047639E-02      61   15    1      -0.3041729304E+02      0.3494324545E+02      0.9607978183E+02      0.1272095308E+01
          0                33           2            60   18     1       0.1272095124E+01      60   18    1       0.1159133911E+02      0.1911562507E+02      0.3494324545E+02      0.1272095124E+01
          1                33           0            60   18     1       0.8904665714E+00      60   18    1      -0.8169477792E+05      0.8517456937E+05      0.1911562507E+02      0.1272095124E+01
          2                33           0            60   18     1       0.6233265894E+00      60   18    1      -0.4343683475E+05      0.4343718853E+05      0.8517456937E+05      0.1272095124E+01
          3                33           0            60   18     1       0.4363286051E+00      60   18    1      -0.1665801202E+05      0.1665843512E+05      0.4343718853E+05      0.1272095124E+01
          4                33           0            60   18     1       0.3054300184E+00      61   15    1      -0.7826749490E+02      0.8013519702E+02      0.1665843512E+05      0.1272095124E+01
          5                33           0            60   18     1       0.2138010092E+00      61   15    1      -0.5044927706E+02      0.5330065649E+02      0.8013519702E+02      0.1272095124E+01
          6                33           0            60   18     1       0.1496607039E+00      61   15    1      -0.3097652533E+02      0.3543109527E+02      0.5330065649E+02      0.1272095124E+01
                                                   Max.-Head-Change                        Max.-Flux-Residual
  Residual-Control   Outer-Iter.   Inner-Iter.     Column Row Layer    Max.-Head-Change    Column Row Layer    Max.-Flux-Residual            L2-New               L2-Old           Solver-Max-Delh
          7                33           0            60   18     1       0.1047624910E+00      61   15    1      -0.1734559957E+02      0.2442699510E+02      0.3543109527E+02      0.1272095124E+01
          0                34           2            60   18     1       0.1272081798E+01      60   18    1       0.1159133911E+02      0.1888659682E+02      0.2442699510E+02      0.1272081798E+01
          1                34           0            60   18     1       0.8904572434E+00      60   18    1      -0.9219630475E+05      0.9758958755E+05      0.1888659682E+02      0.1272081798E+01
          2                34           0            60   18     1       0.6233200597E+00      60   18    1      -0.5393796103E+05      0.5403412685E+05      0.9758958755E+05      0.1272081798E+01
          3                34           0            60   18     1       0.4363240344E+00      60   18    1      -0.2715885787E+05      0.2715886144E+05      0.5403412685E+05      0.1272081798E+01
          4                34           0            60   18     1       0.3054268189E+00      60   18    1      -0.8414337113E+04      0.8414348608E+04      0.2715886144E+05      0.1272081798E+01
          0                35           2            60   18     1       0.1272042949E+01      60   18    1       0.1159133911E+02      0.1822321848E+02      0.8414348608E+04      0.1272042949E+01
          1                35           0            60   18     1       0.8904300492E+00      60   18    1      -0.1228139374E+06      0.1355503398E+06      0.1822321848E+02      0.1272042949E+01
          2                35           0            60   18     1       0.6233010239E+00      60   18    1      -0.8455442592E+05      0.8853448362E+05      0.1355503398E+06      0.1272042949E+01
          3                35           0            60   18     1       0.4363107093E+00      60   18    1      -0.5777450526E+05      0.5809646269E+05      0.8853448362E+05      0.1272042949E+01
                                                   Max.-Head-Change                        Max.-Flux-Residual
  Residual-Control   Outer-Iter.   Inner-Iter.     Column Row Layer    Max.-Head-Change    Column Row Layer    Max.-Flux-Residual            L2-New               L2-Old           Solver-Max-Delh
          4                35           0            60   18     1       0.3054174913E+00      60   18    1      -0.3902941219E+05      0.3902941476E+05      0.5809646269E+05      0.1272042949E+01
          5                35           0            60   18     1       0.2137922403E+00      60   18    1      -0.2590826430E+05      0.2590826810E+05      0.3902941476E+05      0.1272042949E+01
          6                35           0            60   18     1       0.1496545656E+00      60   18    1      -0.1672366527E+05      0.1672367113E+05      0.2590826810E+05      0.1272042949E+01
          7                35           0            60   18     1       0.1047581942E+00      60   18    1      -0.1029454619E+05      0.1029455568E+05      0.1672367113E+05      0.1272042949E+01
          8                35           0            60   18     1       0.7333073466E-01      60   18    1      -0.5794211973E+04      0.5794228819E+04      0.1029455568E+05      0.1272042949E+01
          9                35           0            60   18     1       0.5133151339E-01      60   18    1      -0.2644002116E+04      0.2644039028E+04      0.5794228819E+04      0.1272042949E+01
         10                35           0            60   18     1       0.3593205876E-01      60   18    1      -0.4388670327E+03      0.4390893917E+03      0.2644039028E+04      0.1272042949E+01
          0                36           2            60   18     1       0.1272038379E+01      60   18    1       0.1159133911E+02      0.1817041128E+02      0.4390893917E+03      0.1272038379E+01
          1                36           0            60   18     1       0.8904268501E+00      60   18    1      -0.1264160838E+06      0.1401523171E+06      0.1817041128E+02      0.1272038379E+01
          2                36           0            60   18     1       0.6232987844E+00      60   18    1      -0.8815643495E+05      0.9279006591E+05      0.1401523171E+06      0.1272038379E+01
                                                   Max.-Head-Change                        Max.-Flux-Residual
  Residual-Control   Outer-Iter.   Inner-Iter.     Column Row Layer    Max.-Head-Change    Column Row Layer    Max.-Flux-Residual            L2-New               L2-Old           Solver-Max-Delh
          3                36           0            60   18     1       0.4363091417E+00      60   18    1      -0.6137641812E+05      0.6200642907E+05      0.9279006591E+05      0.1272038379E+01
          4                36           0            60   18     1       0.3054163940E+00      60   18    1      -0.4263125773E+05      0.4263126009E+05      0.6200642907E+05      0.1272038379E+01
          5                36           0            60   18     1       0.2137914721E+00      60   18    1      -0.2951006270E+05      0.2951006606E+05      0.4263126009E+05      0.1272038379E+01
          6                36           0            60   18     1       0.1496540280E+00      60   18    1      -0.2032543068E+05      0.2032543551E+05      0.2951006606E+05      0.1272038379E+01
          7                36           0            60   18     1       0.1047578178E+00      60   18    1      -0.1389628850E+05      0.1389629555E+05      0.2032543551E+05      0.1272038379E+01
          8                36           0            60   18     1       0.7333047120E-01      60   18    1      -0.9395938114E+04      0.9395948517E+04      0.1389629555E+05      0.1272038379E+01
          9                36           0            60   18     1       0.5133132896E-01      60   18    1      -0.6245716939E+04      0.6245732576E+04      0.9395948517E+04      0.1272038379E+01
         10                36           0            60   18     1       0.3593192966E-01      60   18    1      -0.4040573934E+04      0.4040598097E+04      0.6245732576E+04      0.1272038379E+01
         11                36           0            60   18     1       0.2515235034E-01      60   18    1      -0.2496979628E+04      0.2497018724E+04      0.4040598097E+04      0.1272038379E+01
         12                36           0            60   18     1       0.1760664494E-01      60   18    1      -0.1416466461E+04      0.1416535378E+04      0.2497018724E+04      0.1272038379E+01
                                                   Max.-Head-Change                        Max.-Flux-Residual
  Residual-Control   Outer-Iter.   Inner-Iter.     Column Row Layer    Max.-Head-Change    Column Row Layer    Max.-Flux-Residual            L2-New               L2-Old           Solver-Max-Delh
         13                36           0            60   18     1       0.1232465124E-01      60   18    1      -0.6601086433E+03      0.6602565128E+03      0.1416535378E+04      0.1272038379E+01
         14                36           0            60   18     1       0.8627255725E-02      60   18    1      -0.1306588588E+03      0.1314038927E+03      0.6602565128E+03      0.1272038379E+01
          0                37           2            60   18     1       0.1272037282E+01      60   18    1       0.1159133911E+02      0.1815825761E+02      0.1314038927E+03      0.1272037282E+01
          1                37           0            60   18     1       0.8904260820E+00      60   18    1      -0.1272809598E+06      0.1412601783E+06      0.1815825761E+02      0.1272037282E+01
          2                37           0            60   18     1       0.6232982468E+00      60   18    1      -0.8902127800E+05      0.9381532684E+05      0.1412601783E+06      0.1272037282E+01
          3                37           0            60   18     1       0.4363087653E+00      60   18    1      -0.6224123808E+05      0.6295709276E+05      0.9381532684E+05      0.1272037282E+01
          4                37           0            60   18     1       0.3054161305E+00      60   18    1      -0.4349606152E+05      0.4349606385E+05      0.6295709276E+05      0.1272037282E+01
          5                37           0            60   18     1       0.2137912877E+00      60   18    1      -0.3037485518E+05      0.3037485845E+05      0.4349606385E+05      0.1272037282E+01
          6                37           0            60   18     1       0.1496538989E+00      60   18    1      -0.2119021524E+05      0.2119021988E+05      0.3037485845E+05      0.1272037282E+01
          7                37           0            60   18     1       0.1047577274E+00      60   18    1      -0.1476106751E+05      0.1476107415E+05      0.2119021988E+05      0.1272037282E+01
                                                   Max.-Head-Change                        Max.-Flux-Residual
  Residual-Control   Outer-Iter.   Inner-Iter.     Column Row Layer    Max.-Head-Change    Column Row Layer    Max.-Flux-Residual            L2-New               L2-Old           Solver-Max-Delh
          8                37           0            60   18     1       0.7333040794E-01      60   18    1      -0.1026071325E+05      0.1026072278E+05      0.1476107415E+05      0.1272037282E+01
          9                37           0            60   18     1       0.5133128468E-01      60   18    1      -0.7110489355E+04      0.7110503094E+04      0.1026072278E+05      0.1272037282E+01
         10                37           0            60   18     1       0.3593189867E-01      60   18    1      -0.4905344448E+04      0.4905364355E+04      0.7110503094E+04      0.1272037282E+01
         11                37           0            60   18     1       0.2515232864E-01      60   18    1      -0.3361748811E+04      0.3361777853E+04      0.4905364355E+04      0.1272037282E+01
         12                37           0            60   18     1       0.1760662975E-01      60   18    1      -0.2281234712E+04      0.2281277506E+04      0.3361777853E+04      0.1272037282E+01
         13                37           0            60   18     1       0.1232464061E-01      60   18    1      -0.1524876241E+04      0.1524940260E+04      0.2281277506E+04      0.1272037282E+01
         14                37           0            60   18     1       0.8627248282E-02      60   18    1      -0.9954260000E+03      0.9955240659E+03      0.1524940260E+04      0.1272037282E+01
         15                37           0            60   18     1       0.6039073695E-02      60   18    1      -0.6248111701E+03      0.6249673936E+03      0.9955240659E+03      0.1272037282E+01
         16                37           0            60   18     1       0.4227351514E-02      60   18    1      -0.3653809567E+03      0.3656480400E+03      0.6249673936E+03      0.1272037282E+01
         17                37           0            60   18     1       0.2959146010E-02      60   18    1      -0.1837798904E+03      0.1843103215E+03      0.3656480400E+03      0.1272037282E+01
                                                   Max.-Head-Change                        Max.-Flux-Residual
  Residual-Control   Outer-Iter.   Inner-Iter.     Column Row Layer    Max.-Head-Change    Column Row Layer    Max.-Flux-Residual            L2-New               L2-Old           Solver-Max-Delh
         18                37           0            60   18     1       0.2071402171E-02      60   18    1      -0.5665918518E+02      0.5835675273E+02      0.1843103215E+03      0.1272037282E+01
          0                38           2            60   18     1       0.1272037018E+01      60   18    1       0.1159133911E+02      0.1815536869E+02      0.5835675273E+02      0.1272037018E+01
          1                38           0            60   18     1       0.8904258976E+00      60   18    1      -0.1274886166E+06      0.1415263374E+06      0.1815536869E+02      0.1272037018E+01
          2                38           0            60   18     1       0.6232981177E+00      60   18    1      -0.8922892685E+05      0.9406168163E+05      0.1415263374E+06      0.1272037018E+01
          3                38           0            60   18     1       0.4363086749E+00      60   18    1      -0.6244888138E+05      0.6318597657E+05      0.9406168163E+05      0.1272037018E+01
          4                38           0            60   18     1       0.3054160673E+00      60   18    1      -0.4370370094E+05      0.4370370326E+05      0.6318597657E+05      0.1272037018E+01
          5                38           0            60   18     1       0.2137912434E+00      60   18    1      -0.3058249188E+05      0.3058249513E+05      0.4370370326E+05      0.1272037018E+01
          6                38           0            60   18     1       0.1496538679E+00      60   18    1      -0.2139785004E+05      0.2139785464E+05      0.3058249513E+05      0.1272037018E+01
          7                38           0            60   18     1       0.1047577057E+00      60   18    1      -0.1496870099E+05      0.1496870753E+05      0.2139785464E+05      0.1272037018E+01
          8                38           0            60   18     1       0.7333039275E-01      60   18    1      -0.1046834579E+05      0.1046835513E+05      0.1496870753E+05      0.1272037018E+01
                                                   Max.-Head-Change                        Max.-Flux-Residual
  Residual-Control   Outer-Iter.   Inner-Iter.     Column Row Layer    Max.-Head-Change    Column Row Layer    Max.-Flux-Residual            L2-New               L2-Old           Solver-Max-Delh
          9                38           0            60   18     1       0.5133127405E-01      60   18    1      -0.7318121241E+04      0.7318134591E+04      0.1046835513E+05      0.1272037018E+01
         10                38           0            60   18     1       0.3593189123E-01      60   18    1      -0.5112975877E+04      0.5112994976E+04      0.7318134591E+04      0.1272037018E+01
         11                38           0            60   18     1       0.2515232343E-01      60   18    1      -0.3569379920E+04      0.3569407274E+04      0.5112994976E+04      0.1272037018E+01
         12                38           0            60   18     1       0.1760662610E-01      60   18    1      -0.2488865598E+04      0.2488904823E+04      0.3569407274E+04      0.1272037018E+01
         13                38           0            60   18     1       0.1232463806E-01      60   18    1      -0.1732506970E+04      0.1732563318E+04      0.2488904823E+04      0.1272037018E+01
         14                38           0            60   18     1       0.8627246496E-02      60   18    1      -0.1203056619E+04      0.1203137762E+04      0.1732563318E+04      0.1272037018E+01
         15                38           0            60   18     1       0.6039072444E-02      60   18    1      -0.8324417129E+03      0.8325589771E+03      0.1203137762E+04      0.1272037018E+01
         16                38           0            60   18     1       0.4227350639E-02      60   18    1      -0.5730114457E+03      0.5731817881E+03      0.8325589771E+03      0.1272037018E+01
         17                38           0            60   18     1       0.2959145397E-02      60   18    1      -0.3914103417E+03      0.3916596755E+03      0.5731817881E+03      0.1272037018E+01
         18                38           0            60   18     1       0.2071401742E-02      60   18    1      -0.2642896102E+03      0.2646587319E+03      0.3916596755E+03      0.1272037018E+01
                                                   Max.-Head-Change                        Max.-Flux-Residual
  Residual-Control   Outer-Iter.   Inner-Iter.     Column Row Layer    Max.-Head-Change    Column Row Layer    Max.-Flux-Residual            L2-New               L2-Old           Solver-Max-Delh
         19                38           0            60   18     1       0.1449981195E-02      60   18    1      -0.1753051188E+03      0.1758611140E+03      0.2646587319E+03      0.1272037018E+01
         20                38           0            60   18     1       0.1014986819E-02      60   18    1      -0.1130159854E+03      0.1138765121E+03      0.1758611140E+03      0.1272037018E+01
         21                38           0            60   18     1       0.7104907614E-03      60   18    1      -0.6941359731E+02      0.7080603652E+02      0.1138765121E+03      0.1272037018E+01
         22                38           0            60   18     1       0.4973435245E-03      60   18    1      -0.3889192840E+02      0.4132589496E+02      0.7080603652E+02      0.1272037018E+01
         23                38           0            60   18     1       0.3481404612E-03      60   18    1      -0.1752676163E+02      0.2241506204E+02      0.4132589496E+02      0.1272037018E+01
          0                39           2            61   18     1       0.9572337525E+00      61   18    1       0.8718017346E+01      0.1420769222E+02      0.2241506204E+02      0.9572337525E+00

    ------------------------------------------------
       NWT REQUIRED           39 OUTER ITERATIONS 
       AND A TOTAL OF         78 INNER ITERATIONS.
    ------------------------------------------------

 OUTPUT CONTROL FOR STRESS PERIOD    1   TIME STEP  134
    SAVE HEAD FOR ALL LAYERS
    SAVE DRAWDOWN FOR ALL LAYERS
    SAVE BUDGET
    PRINT BUDGET
 UBDSV1 SAVING "         STORAGE" ON UNIT   9 AT TIME STEP134, STRESS PERIOD   1
 UBDSV2 SAVING "   CONSTANT HEAD" ON UNIT   9 AT TIME STEP134, STRESS PERIOD   1
 UBDSV1 SAVING "FLOW RIGHT FACE " ON UNIT   9 AT TIME STEP134, STRESS PERIOD   1
 UBDSV1 SAVING "FLOW FRONT FACE " ON UNIT   9 AT TIME STEP134, STRESS PERIOD   1
 UBDSV4 SAVING "   RIVER LEAKAGE" ON UNIT   9 AT TIME STEP134, STRESS PERIOD   1
 UBDSV3 SAVING "        RECHARGE" ON UNIT   9 AT TIME STEP134, STRESS PERIOD   1

 HEAD WILL BE SAVED ON UNIT   37 AT END OF TIME STEP  134, STRESS PERIOD    1

 DRAWDOWN WILL BE SAVED ON UNIT   38 AT END OF TIME STEP  134, STRESS PERIOD    1
1
  VOLUMETRIC BUDGET FOR ENTIRE MODEL AT END OF TIME STEP  134, STRESS PERIOD   1
  ------------------------------------------------------------------------------

     CUMULATIVE VOLUMES      L**3       RATES FOR THIS TIME STEP      L**3/T
     ------------------                 ------------------------

           IN:                                      IN:
           ---                                      ---
             STORAGE =   121326560.0000               STORAGE =      854011.9375
       CONSTANT HEAD =           0.0000         CONSTANT HEAD =           0.0000
       RIVER LEAKAGE =   301513600.0000         RIVER LEAKAGE =    15227647.0000
            RECHARGE =      175043.9219              RECHARGE =         113.0846

            TOTAL IN =   423015200.0000              TOTAL IN =    16081772.0000

          OUT:                                     OUT:
          ----                                     ----
             STORAGE =   422340160.0000               STORAGE =    16147520.0000
       CONSTANT HEAD =           0.0000         CONSTANT HEAD =           0.0000
       RIVER LEAKAGE =      808791.7500         RIVER LEAKAGE =       11528.9248
            RECHARGE =           0.0000              RECHARGE =           0.0000

           TOTAL OUT =   423148960.0000             TOTAL OUT =    16159049.0000

            IN - OUT =     -133760.0000              IN - OUT =      -77277.0000

 PERCENT DISCREPANCY =          -0.03     PERCENT DISCREPANCY =          -0.48






         TIME SUMMARY AT END OF TIME STEP  134 IN STRESS PERIOD    1
                    SECONDS     MINUTES      HOURS       DAYS        YEARS
                    -----------------------------------------------------------
   TIME STEP LENGTH  86400.      1440.0      24.000      1.0000     2.73785E-03
 STRESS PERIOD TIME 1.15776E+07 1.92960E+05  3216.0      134.00     0.36687    
         TOTAL TIME 1.15776E+07 1.92960E+05  3216.0      134.00     0.36687    
1
 
 SOLVING FOR HEAD 
                                                   Max.-Head-Change                        Max.-Flux-Residual
  Residual-Control   Outer-Iter.   Inner-Iter.     Column Row Layer    Max.-Head-Change    Column Row Layer    Max.-Flux-Residual            L2-New               L2-Old           Solver-Max-Delh
          0                 1           2            61   16     1       0.1672469450E+04      36   74    1       0.4554717092E+06      0.1768980278E+07      0.1420769222E+02      0.1672469450E+04
          1                 1           0            61   16     1       0.1170728595E+04      58   15    1      -0.5789218903E+08      0.9705140645E+08      0.1768980278E+07      0.1672469450E+04
          2                 1           0            61   16     1       0.8195100024E+03      58   15    1      -0.4008235362E+08      0.6811578476E+08      0.9705140645E+08      0.1672469450E+04
          3                 1           0            61   16     1       0.5736569919E+03      58   15    1      -0.2761548132E+08      0.4787520689E+08      0.6811578476E+08      0.1672469450E+04
          4                 1           0            61   16     1       0.4015598875E+03      58   15    1      -0.1888868019E+08      0.3372699944E+08      0.4787520689E+08      0.1672469450E+04
          5                 1           0            61   16     1       0.2810919165E+03      61   16    1      -0.1353959303E+08      0.2385140009E+08      0.3372699944E+08      0.1672469450E+04
          6                 1           0            61   16     1       0.1967643382E+03      61   16    1      -0.9852480499E+07      0.1697754642E+08      0.2385140009E+08      0.1672469450E+04
          7                 1           0            61   16     1       0.1377350344E+03      61   16    1      -0.7271505640E+07      0.1221869718E+08      0.1697754642E+08      0.1672469450E+04
          8                 1           0            61   16     1       0.9641452242E+02      61   16    1      -0.5464823270E+07      0.8956610912E+07      0.1221869718E+08      0.1672469450E+04
          9                 1           0            61   16     1       0.6749016455E+02      61   16    1      -0.4200145632E+07      0.6758508969E+07      0.8956610912E+07      0.1672469450E+04
                                                   Max.-Head-Change                        Max.-Flux-Residual
  Residual-Control   Outer-Iter.   Inner-Iter.     Column Row Layer    Max.-Head-Change    Column Row Layer    Max.-Flux-Residual            L2-New               L2-Old           Solver-Max-Delh
         10                 1           0            61   16     1       0.4724311438E+02      61   16    1      -0.3314876088E+07      0.5306312403E+07      0.6758508969E+07      0.1672469450E+04
         11                 1           0            61   16     1       0.3307017950E+02      61   16    1      -0.2695187798E+07      0.4070762782E+07      0.5306312403E+07      0.1672469450E+04
         12                 1           0            61   16     1       0.2314912526E+02      61   16    1      -0.2261406003E+07      0.3158123033E+07      0.4070762782E+07      0.1672469450E+04
         13                 1           0            61   16     1       0.1620438740E+02      61   16    1      -0.1957758751E+07      0.2648671027E+07      0.3158123033E+07      0.1672469450E+04
         14                 1           0            61   16     1       0.1134307099E+02      61   16    1      -0.1559057194E+07      0.2343797414E+07      0.2648671027E+07      0.1672469450E+04
         15                 1           0            61   16     1       0.7940149557E+01      61   16    1      -0.1071601268E+07      0.2056910682E+07      0.2343797414E+07      0.1672469450E+04
          0                 2           2            59   15     1       0.1622890824E+04      61   16    1      -0.7306637346E+06      0.1905344466E+07      0.2056910682E+07      0.1622890824E+04
          1                 2           0            59   15     1       0.1136023557E+04      58   15    1      -0.5815624984E+08      0.8196936179E+08      0.1905344466E+07      0.1622890824E+04
          2                 2           0            59   15     1       0.7952164766E+03      58   15    1      -0.4035174944E+08      0.5746681572E+08      0.8196936179E+08      0.1622890824E+04
          3                 2           0            59   15     1       0.5566515242E+03      58   15    1      -0.2788861110E+08      0.4033062527E+08      0.5746681572E+08      0.1622890824E+04
                                                   Max.-Head-Change                        Max.-Flux-Residual
  Residual-Control   Outer-Iter.   Inner-Iter.     Column Row Layer    Max.-Head-Change    Column Row Layer    Max.-Flux-Residual            L2-New               L2-Old           Solver-Max-Delh
          4                 2           0            59   15     1       0.3896560603E+03      58   15    1      -0.1916442413E+08      0.2835732537E+08      0.4033062527E+08      0.1622890824E+04
          5                 2           0            59   15     1       0.2727592376E+03      58   15    1      -0.1305749335E+08      0.2000688823E+08      0.2835732537E+08      0.1622890824E+04
          6                 2           0            59   15     1       0.1909314630E+03      59   15    1      -0.9040192936E+07      0.1420473826E+08      0.2000688823E+08      0.1622890824E+04
          7                 2           0            59   15     1       0.1336520219E+03      59   15    1      -0.6606753006E+07      0.1020205914E+08      0.1420473826E+08      0.1622890824E+04
          8                 2           0            59   15     1       0.9355641370E+02      59   15    1      -0.4903345199E+07      0.7477535827E+07      0.1020205914E+08      0.1622890824E+04
          9                 2           0            59   15     1       0.6548948848E+02      59   15    1      -0.3710966252E+07      0.5665832635E+07      0.7477535827E+07      0.1622890824E+04
         10                 2           0            59   15     1       0.4584264115E+02      59   15    1      -0.2876302745E+07      0.4493461878E+07      0.5665832635E+07      0.1622890824E+04
         11                 2           0            59   15     1       0.3208984826E+02      59   15    1      -0.2292042357E+07      0.3661203022E+07      0.4493461878E+07      0.1622890824E+04
         12                 2           0            59   15     1       0.2246289340E+02      59   15    1      -0.1883065514E+07      0.2792158486E+07      0.3661203022E+07      0.1622890824E+04
         13                 2           0            59   15     1       0.1572402511E+02      59   15    1      -0.1157125125E+07      0.2205214504E+07      0.2792158486E+07      0.1622890824E+04
                                                   Max.-Head-Change                        Max.-Flux-Residual
  Residual-Control   Outer-Iter.   Inner-Iter.     Column Row Layer    Max.-Head-Change    Column Row Layer    Max.-Flux-Residual            L2-New               L2-Old           Solver-Max-Delh
          0                 3           2            60   16     1       0.1081703901E+04      61   16    1      -0.7239390278E+06      0.1945745814E+07      0.2205214504E+07      0.1081703901E+04
          1                 3           0            60   16     1       0.7571927176E+03      58   15    1      -0.5869532183E+08      0.6621645947E+08      0.1945745814E+07      0.1081703901E+04
          2                 3           0            60   16     1       0.5300348933E+03      58   15    1      -0.4090160604E+08      0.4644426990E+08      0.6621645947E+08      0.1081703901E+04
          3                 3           0            60   16     1       0.3710244190E+03      58   15    1      -0.2844601577E+08      0.3262107183E+08      0.4644426990E+08      0.1081703901E+04
          4                 3           0            60   16     1       0.2597170889E+03      58   15    1      -0.1972711325E+08      0.2296927099E+08      0.3262107183E+08      0.1081703901E+04
          5                 3           0            60   16     1       0.1818019591E+03      58   15    1      -0.1362388158E+08      0.1624706223E+08      0.2296927099E+08      0.1081703901E+04
          6                 3           0            60   16     1       0.1272613692E+03      58   15    1      -0.9351619486E+07      0.1158875241E+08      0.1624706223E+08      0.1081703901E+04
          7                 3           0            60   16     1       0.8908295693E+02      58   15    1      -0.6361036072E+07      0.8391356698E+07      0.1158875241E+08      0.1081703901E+04
          8                 3           0            60   16     1       0.6235806879E+02      58   15    1      -0.4267627717E+07      0.6234469833E+07      0.8391356698E+07      0.1081703901E+04
          9                 3           0            60   16     1       0.4365064741E+02      58   15    1      -0.2802241894E+07      0.4820881818E+07      0.6234469833E+07      0.1081703901E+04
                                                   Max.-Head-Change                        Max.-Flux-Residual
  Residual-Control   Outer-Iter.   Inner-Iter.     Column Row Layer    Max.-Head-Change    Column Row Layer    Max.-Flux-Residual            L2-New               L2-Old           Solver-Max-Delh
         10                 3           0            60   16     1       0.3055545266E+02      60   16    1      -0.2130777799E+07      0.3932096649E+07      0.4820881818E+07      0.1081703901E+04
         11                 3           0            60   16     1       0.2138881650E+02      60   16    1      -0.1870370944E+07      0.3386147088E+07      0.3932096649E+07      0.1081703901E+04
         12                 3           0            60   16     1       0.1497217130E+02      60   16    1      -0.1688087063E+07      0.3018434431E+07      0.3386147088E+07      0.1081703901E+04
         13                 3           0            60   16     1       0.1048051973E+02      60   16    1      -0.1093127573E+07      0.2402052571E+07      0.3018434431E+07      0.1081703901E+04
          0                 4           2            58   15     1       0.6309662369E+03      61   16    1      -0.7172742290E+06      0.2094944864E+07      0.2402052571E+07      0.6309662369E+03
          1                 4           0            58   15     1       0.4416763583E+03      58   15    1      -0.5923371728E+08      0.5923417539E+08      0.2094944864E+07      0.6309662369E+03
          2                 4           0            58   15     1       0.3091734455E+03      58   15    1      -0.4145088436E+08      0.4145474381E+08      0.5923417539E+08      0.6309662369E+03
          3                 4           0            58   15     1       0.2164214082E+03      58   15    1      -0.2900291096E+08      0.2902080966E+08      0.4145474381E+08      0.6309662369E+03
          4                 4           0            58   15     1       0.1514949832E+03      58   15    1      -0.2028934103E+08      0.2033366584E+08      0.2902080966E+08      0.6309662369E+03
          5                 4           0            58   15     1       0.1060464864E+03      58   15    1      -0.1418984218E+08      0.1427604867E+08      0.2033366584E+08      0.6309662369E+03
                                                   Max.-Head-Change                        Max.-Flux-Residual
  Residual-Control   Outer-Iter.   Inner-Iter.     Column Row Layer    Max.-Head-Change    Column Row Layer    Max.-Flux-Residual            L2-New               L2-Old           Solver-Max-Delh
          6                 4           0            58   15     1       0.7423253922E+02      58   15    1      -0.9920193060E+07      0.1006904228E+08      0.1427604867E+08      0.6309662369E+03
          7                 4           0            58   15     1       0.5196277657E+02      58   15    1      -0.6931438726E+07      0.7170447854E+07      0.1006904228E+08      0.6309662369E+03
          8                 4           0            58   15     1       0.3637394298E+02      58   15    1      -0.4839310727E+07      0.5203914061E+07      0.7170447854E+07      0.6309662369E+03
          9                 4           0            58   15     1       0.2546175965E+02      58   15    1      -0.3374821153E+07      0.3906706541E+07      0.5203914061E+07      0.6309662369E+03
         10                 4           0            58   15     1       0.1782323145E+02      58   15    1      -0.2349678469E+07      0.3089541889E+07      0.3906706541E+07      0.6309662369E+03
         11                 4           0            58   15     1       0.1247626180E+02      58   15    1      -0.1621172590E+07      0.2600030219E+07      0.3089541889E+07      0.6309662369E+03
         12                 4           0            58   15     1       0.8733383114E+01      58   15    1      -0.1084115333E+07      0.2320234474E+07      0.2600030219E+07      0.6309662369E+03
          0                 5           2            61   16     1      -0.6714590063E+01      58   15    1      -0.7085163738E+06      0.2182647805E+07      0.2320234474E+07     -0.6714590063E+01
          0                 6           2            62   15     1       0.1013267646E+01      43   60    1      -0.1081240448E+06      0.2341743974E+06      0.2182647805E+07      0.1013267646E+01
          0                 7           2            62   15     1       0.1013164418E+01      43   60    1      -0.5406199501E+04      0.1172749311E+05      0.2341743974E+06      0.1013164418E+01
                                                   Max.-Head-Change                        Max.-Flux-Residual
  Residual-Control   Outer-Iter.   Inner-Iter.     Column Row Layer    Max.-Head-Change    Column Row Layer    Max.-Flux-Residual            L2-New               L2-Old           Solver-Max-Delh
          0                 8           2            62   15     1       0.1013061212E+01      43   60    1      -0.2702557760E+03      0.5863194489E+03      0.1172749311E+05      0.1013061212E+01
          0                 9           2            62   15     1       0.1012958036E+01      43   60    1      -0.1350737691E+02      0.3076244947E+02      0.5863194489E+03      0.1012958036E+01
          1                 9           0            62   15     1       0.7090706135E+00      62   15    1      -0.6877148164E+04      0.6877148540E+04      0.3076244947E+02      0.1012958036E+01
          0                10           2            62   15     1       0.1012885834E+01      62   15    1       0.9213033124E+01      0.1357196025E+02      0.6877148540E+04      0.1012885834E+01
          1                10           0            62   15     1       0.7090200714E+00      62   15    1      -0.7782300726E+05      0.7782300732E+05      0.1357196025E+02      0.1012885834E+01
          2                10           0            62   15     1       0.4963140415E+00      62   15    1      -0.4741547366E+05      0.4741547383E+05      0.7782300732E+05      0.1012885834E+01
          3                10           0            62   15     1       0.3474198231E+00      62   15    1      -0.2613130259E+05      0.2613130318E+05      0.4741547383E+05      0.1012885834E+01
          4                10           0            62   15     1       0.2431938721E+00      62   15    1      -0.1123292311E+05      0.1123292520E+05      0.2613130318E+05      0.1012885834E+01
          5                10           0            62   15     1       0.1702357075E+00      62   15    1      -0.8043222686E+03      0.8043598042E+03      0.1123292520E+05      0.1012885834E+01
          0                11           2            62   15     1       0.1012868500E+01      62   15    1       0.9213032687E+01      0.1248561679E+02      0.8043598042E+03      0.1012868500E+01
                                                   Max.-Head-Change                        Max.-Flux-Residual
  Residual-Control   Outer-Iter.   Inner-Iter.     Column Row Layer    Max.-Head-Change    Column Row Layer    Max.-Flux-Residual            L2-New               L2-Old           Solver-Max-Delh
          1                11           0            62   15     1       0.7090079382E+00      62   15    1      -0.9485739394E+05      0.9485739400E+05      0.1248561679E+02      0.1012868500E+01
          2                11           0            62   15     1       0.4963055483E+00      62   15    1      -0.6444934311E+05      0.6444934322E+05      0.9485739400E+05      0.1012868500E+01
          3                11           0            62   15     1       0.3474138779E+00      62   15    1      -0.4316480994E+05      0.4316481022E+05      0.6444934322E+05      0.1012868500E+01
          4                11           0            62   15     1       0.2431897104E+00      62   15    1      -0.2826617698E+05      0.2826617759E+05      0.4316481022E+05      0.1012868500E+01
          5                11           0            62   15     1       0.1702327944E+00      62   15    1      -0.1783739868E+05      0.1783739991E+05      0.2826617759E+05      0.1012868500E+01
          6                11           0            62   15     1       0.1191629540E+00      62   15    1      -0.1053738366E+05      0.1053738608E+05      0.1783739991E+05      0.1012868500E+01
          7                11           0            62   15     1       0.8341406639E-01      62   15    1      -0.5427436754E+04      0.5427441976E+04      0.1053738608E+05      0.1012868500E+01
          8                11           0            62   15     1       0.5838984548E-01      62   15    1      -0.1850505115E+04      0.1850521539E+04      0.5427441976E+04      0.1012868500E+01
          0                12           2            62   15     1       0.1012862555E+01      62   15    1       0.9213032537E+01      0.1219193326E+02      0.1850521539E+04      0.1012862555E+01
          1                12           0            62   15     1       0.7090037766E+00      62   15    1      -0.1007002222E+06      0.1007002222E+06      0.1219193326E+02      0.1012862555E+01
                                                   Max.-Head-Change                        Max.-Flux-Residual
  Residual-Control   Outer-Iter.   Inner-Iter.     Column Row Layer    Max.-Head-Change    Column Row Layer    Max.-Flux-Residual            L2-New               L2-Old           Solver-Max-Delh
          2                12           0            62   15     1       0.4963026352E+00      62   15    1      -0.7029199393E+05      0.7029199404E+05      0.1007002222E+06      0.1012862555E+01
          3                12           0            62   15     1       0.3474118387E+00      62   15    1      -0.4900733657E+05      0.4900733680E+05      0.7029199404E+05      0.1012862555E+01
          4                12           0            62   15     1       0.2431882830E+00      62   15    1      -0.3410861666E+05      0.3410861713E+05      0.4900733680E+05      0.1012862555E+01
          5                12           0            62   15     1       0.1702317952E+00      62   15    1      -0.2367977751E+05      0.2367977835E+05      0.3410861713E+05      0.1012862555E+01
          6                12           0            62   15     1       0.1191622546E+00      62   15    1      -0.1637971988E+05      0.1637972128E+05      0.2367977835E+05      0.1012862555E+01
          7                12           0            62   15     1       0.8341357680E-01      62   15    1      -0.1126974315E+05      0.1126974542E+05      0.1637972128E+05      0.1012862555E+01
          8                12           0            62   15     1       0.5838950276E-01      62   15    1      -0.7692790633E+04      0.7692794187E+04      0.1126974542E+05      0.1012862555E+01
          9                12           0            62   15     1       0.4087265124E-01      62   15    1      -0.5188939167E+04      0.5188944690E+04      0.7692794187E+04      0.1012862555E+01
         10                12           0            62   15     1       0.2861085538E-01      62   15    1      -0.3436250646E+04      0.3436259260E+04      0.5188944690E+04      0.1012862555E+01
         11                12           0            62   15     1       0.2002759842E-01      62   15    1      -0.2209372364E+04      0.2209386066E+04      0.3436259260E+04      0.1012862555E+01
                                                   Max.-Head-Change                        Max.-Flux-Residual
  Residual-Control   Outer-Iter.   Inner-Iter.     Column Row Layer    Max.-Head-Change    Column Row Layer    Max.-Flux-Residual            L2-New               L2-Old           Solver-Max-Delh
         12                12           0            62   15     1       0.1401931866E-01      62   15    1      -0.1350559375E+04      0.1350582144E+04      0.2209386066E+04      0.1012862555E+01
         13                12           0            62   15     1       0.9813522894E-02      62   15    1      -0.7493911732E+03      0.7494326561E+03      0.1350582144E+04      0.1012862555E+01
         14                12           0            62   15     1       0.6869465909E-02      62   15    1      -0.3285738697E+03      0.3286691913E+03      0.7494326561E+03      0.1012862555E+01
         15                12           0            62   15     1       0.4808626054E-02      62   15    1      -0.3400197341E+02      0.3491585175E+02      0.3286691913E+03      0.1012862555E+01
          0                13           2            62   15     1       0.1012862066E+01      62   15    1       0.9213032525E+01      0.1216947751E+02      0.3491585175E+02      0.1012862066E+01
          1                13           0            62   15     1       0.7090034339E+00      62   15    1      -0.1011814044E+06      0.1011814044E+06      0.1216947751E+02      0.1012862066E+01
          2                13           0            62   15     1       0.4963023953E+00      62   15    1      -0.7077316152E+05      0.7077316162E+05      0.1011814044E+06      0.1012862066E+01
          3                13           0            62   15     1       0.3474116708E+00      62   15    1      -0.4948849393E+05      0.4948849415E+05      0.7077316162E+05      0.1012862066E+01
          4                13           0            62   15     1       0.2431881654E+00      62   15    1      -0.3458976686E+05      0.3458976732E+05      0.4948849415E+05      0.1012862066E+01
          5                13           0            62   15     1       0.1702317129E+00      62   15    1      -0.2416092269E+05      0.2416092351E+05      0.3458976732E+05      0.1012862066E+01
                                                   Max.-Head-Change                        Max.-Flux-Residual
  Residual-Control   Outer-Iter.   Inner-Iter.     Column Row Layer    Max.-Head-Change    Column Row Layer    Max.-Flux-Residual            L2-New               L2-Old           Solver-Max-Delh
          6                13           0            62   15     1       0.1191621970E+00      62   15    1      -0.1686086155E+05      0.1686086291E+05      0.2416092351E+05      0.1012862066E+01
          7                13           0            62   15     1       0.8341353648E-01      62   15    1      -0.1175088237E+05      0.1175088452E+05      0.1686086291E+05      0.1012862066E+01
          8                13           0            62   15     1       0.5838947454E-01      62   15    1      -0.8173928134E+04      0.8173931451E+04      0.1175088452E+05      0.1012862066E+01
          9                13           0            62   15     1       0.4087263148E-01      62   15    1      -0.5670075465E+04      0.5670080476E+04      0.8173931451E+04      0.1012862066E+01
         10                13           0            62   15     1       0.2861084155E-01      62   15    1      -0.3917386100E+04      0.3917393593E+04      0.5670080476E+04      0.1012862066E+01
         11                13           0            62   15     1       0.2002758874E-01      62   15    1      -0.2690507229E+04      0.2690518385E+04      0.3917393593E+04      0.1012862066E+01
         12                13           0            62   15     1       0.1401931188E-01      62   15    1      -0.1831693828E+04      0.1831710473E+04      0.2690518385E+04      0.1012862066E+01
         13                13           0            62   15     1       0.9813518150E-02      62   15    1      -0.1230525337E+04      0.1230550384E+04      0.1831710473E+04      0.1012862066E+01
         14                13           0            62   15     1       0.6869462588E-02      62   15    1      -0.8097078308E+03      0.8097461849E+03      0.1230550384E+04      0.1012862066E+01
         15                13           0            62   15     1       0.4808623730E-02      62   15    1      -0.5151357929E+03      0.5151963972E+03      0.8097461849E+03      0.1012862066E+01
                                                   Max.-Head-Change                        Max.-Flux-Residual
  Residual-Control   Outer-Iter.   Inner-Iter.     Column Row Layer    Max.-Head-Change    Column Row Layer    Max.-Flux-Residual            L2-New               L2-Old           Solver-Max-Delh
         16                13           0            62   15     1       0.3366036553E-02      62   15    1      -0.3089354733E+03      0.3090368922E+03      0.5151963972E+03      0.1012862066E+01
         17                13           0            62   15     1       0.2356225547E-02      62   15    1      -0.1645953028E+03      0.1647860738E+03      0.3090368922E+03      0.1012862066E+01
         18                13           0            62   15     1       0.1649357855E-02      62   15    1      -0.6355720995E+02      0.6405052053E+02      0.1647860738E+03      0.1012862066E+01
          0                14           2            28   66     1       0.8620947793E-01      62   15    1       0.6455305492E+01      0.1023234839E+02      0.6405052053E+02      0.8620947793E-01

    ------------------------------------------------
       NWT REQUIRED           14 OUTER ITERATIONS 
       AND A TOTAL OF         28 INNER ITERATIONS.
    ------------------------------------------------

 OUTPUT CONTROL FOR STRESS PERIOD    1   TIME STEP  135
    SAVE HEAD FOR ALL LAYERS
    SAVE DRAWDOWN FOR ALL LAYERS
    SAVE BUDGET
    PRINT BUDGET
 UBDSV1 SAVING "         STORAGE" ON UNIT   9 AT TIME STEP135, STRESS PERIOD   1
 UBDSV2 SAVING "   CONSTANT HEAD" ON UNIT   9 AT TIME STEP135, STRESS PERIOD   1
 UBDSV1 SAVING "FLOW RIGHT FACE " ON UNIT   9 AT TIME STEP135, STRESS PERIOD   1
 UBDSV1 SAVING "FLOW FRONT FACE " ON UNIT   9 AT TIME STEP135, STRESS PERIOD   1
 UBDSV4 SAVING "   RIVER LEAKAGE" ON UNIT   9 AT TIME STEP135, STRESS PERIOD   1
 UBDSV3 SAVING "        RECHARGE" ON UNIT   9 AT TIME STEP135, STRESS PERIOD   1

 HEAD WILL BE SAVED ON UNIT   37 AT END OF TIME STEP  135, STRESS PERIOD    1

 DRAWDOWN WILL BE SAVED ON UNIT   38 AT END OF TIME STEP  135, STRESS PERIOD    1
1
  VOLUMETRIC BUDGET FOR ENTIRE MODEL AT END OF TIME STEP  135, STRESS PERIOD   1
  ------------------------------------------------------------------------------

     CUMULATIVE VOLUMES      L**3       RATES FOR THIS TIME STEP      L**3/T
     ------------------                 ------------------------

           IN:                                      IN:
           ---                                      ---
             STORAGE =   122179520.0000               STORAGE =      852962.5625
       CONSTANT HEAD =           0.0000         CONSTANT HEAD =           0.0000
       RIVER LEAKAGE =   320302976.0000         RIVER LEAKAGE =    18789392.0000
            RECHARGE =      175199.5938              RECHARGE =         155.6700

            TOTAL IN =   442657696.0000              TOTAL IN =    19642510.0000

          OUT:                                     OUT:
          ----                                     ----
             STORAGE =   441967744.0000               STORAGE =    19627594.0000
       CONSTANT HEAD =           0.0000         CONSTANT HEAD =           0.0000
       RIVER LEAKAGE =      823709.3750         RIVER LEAKAGE =       14917.5977
            RECHARGE =           0.0000              RECHARGE =           0.0000

           TOTAL OUT =   442791456.0000             TOTAL OUT =    19642512.0000

            IN - OUT =     -133760.0000              IN - OUT =          -2.0000

 PERCENT DISCREPANCY =          -0.03     PERCENT DISCREPANCY =          -0.00






         TIME SUMMARY AT END OF TIME STEP  135 IN STRESS PERIOD    1
                    SECONDS     MINUTES      HOURS       DAYS        YEARS
                    -----------------------------------------------------------
   TIME STEP LENGTH  86400.      1440.0      24.000      1.0000     2.73785E-03
 STRESS PERIOD TIME 1.16640E+07 1.94400E+05  3240.0      135.00     0.36961    
         TOTAL TIME 1.16640E+07 1.94400E+05  3240.0      135.00     0.36961    
1
 
 SOLVING FOR HEAD 
                                                   Max.-Head-Change                        Max.-Flux-Residual
  Residual-Control   Outer-Iter.   Inner-Iter.     Column Row Layer    Max.-Head-Change    Column Row Layer    Max.-Flux-Residual            L2-New               L2-Old           Solver-Max-Delh
          0                 1           2            42   61     1       0.1607639204E+01      36   74    1       0.3333649813E+06      0.1279352601E+07      0.1023234839E+02      0.1607639204E+01
          0                 2           2            49   43     1      -0.2230865178E+02      36   74    1      -0.3333809237E+05      0.1274552610E+06      0.1279352601E+07     -0.2230865178E+02
          1                 2           0            49   43     1      -0.1561605598E+02      49   43    1       0.2081248349E+07      0.2081258121E+07      0.1274552610E+06     -0.2230865178E+02
          2                 2           0            49   43     1      -0.1093123900E+02      49   43    1       0.1556640565E+07      0.1557224859E+07      0.2081258121E+07     -0.2230865178E+02
          3                 2           0            49   43     1      -0.7651867169E+01      49   43    1       0.1088386365E+07      0.1090512627E+07      0.1557224859E+07     -0.2230865178E+02
          4                 2           0            49   43     1      -0.5356306927E+01      49   43    1       0.7603469901E+06      0.7651786816E+06      0.1090512627E+07     -0.2230865178E+02
          5                 2           0            49   43     1      -0.3749414785E+01      49   43    1       0.5305913823E+06      0.5396213729E+06      0.7651786816E+06     -0.2230865178E+02
          6                 2           0            49   43     1      -0.2624590305E+01      49   43    1       0.3696996862E+06      0.3848786671E+06      0.5396213729E+06     -0.2230865178E+02
          7                 2           0            49   43     1      -0.1837213182E+01      49   43    1       0.2570447120E+06      0.2808361314E+06      0.3848786671E+06     -0.2230865178E+02
          8                 2           0            49   43     1      -0.1286049206E+01      49   43    1       0.1781711449E+06      0.2133693082E+06      0.2808361314E+06     -0.2230865178E+02
                                                   Max.-Head-Change                        Max.-Flux-Residual
  Residual-Control   Outer-Iter.   Inner-Iter.     Column Row Layer    Max.-Head-Change    Column Row Layer    Max.-Flux-Residual            L2-New               L2-Old           Solver-Max-Delh
          9                 2           0            49   43     1      -0.9002344285E+00      49   43    1       0.1229522565E+06      0.1720745769E+06      0.2133693082E+06     -0.2230865178E+02
         10                 2           0            49   43     1      -0.6301640893E+00      49   43    1       0.8429541297E+05      0.1486821610E+06      0.1720745769E+06     -0.2230865178E+02
          0                 3           2            49   43     1       0.4697871680E+00      49   43    1       0.5723384807E+05      0.1365187897E+06      0.1486821610E+06      0.4697871680E+00
          0                 4           2            63   18     1       0.1929283885E+00      49   43    1       0.1015679579E+05      0.1190230603E+05      0.1365187897E+06      0.1929283885E+00
          0                 5           2            63   18     1       0.1929246583E+00      49   43    1       0.1802659485E+04      0.1829145307E+04      0.1190230603E+05      0.1929246583E+00

    ------------------------------------------------
       NWT REQUIRED            5 OUTER ITERATIONS 
       AND A TOTAL OF         10 INNER ITERATIONS.
    ------------------------------------------------

 OUTPUT CONTROL FOR STRESS PERIOD    1   TIME STEP  136
    SAVE HEAD FOR ALL LAYERS
    SAVE DRAWDOWN FOR ALL LAYERS
    SAVE BUDGET
    PRINT BUDGET
 UBDSV1 SAVING "         STORAGE" ON UNIT   9 AT TIME STEP136, STRESS PERIOD   1
 UBDSV2 SAVING "   CONSTANT HEAD" ON UNIT   9 AT TIME STEP136, STRESS PERIOD   1
 UBDSV1 SAVING "FLOW RIGHT FACE " ON UNIT   9 AT TIME STEP136, STRESS PERIOD   1
 UBDSV1 SAVING "FLOW FRONT FACE " ON UNIT   9 AT TIME STEP136, STRESS PERIOD   1
 UBDSV4 SAVING "   RIVER LEAKAGE" ON UNIT   9 AT TIME STEP136, STRESS PERIOD   1
 UBDSV3 SAVING "        RECHARGE" ON UNIT   9 AT TIME STEP136, STRESS PERIOD   1

 HEAD WILL BE SAVED ON UNIT   37 AT END OF TIME STEP  136, STRESS PERIOD    1

 DRAWDOWN WILL BE SAVED ON UNIT   38 AT END OF TIME STEP  136, STRESS PERIOD    1
1
  VOLUMETRIC BUDGET FOR ENTIRE MODEL AT END OF TIME STEP  136, STRESS PERIOD   1
  ------------------------------------------------------------------------------

     CUMULATIVE VOLUMES      L**3       RATES FOR THIS TIME STEP      L**3/T
     ------------------                 ------------------------

           IN:                                      IN:
           ---                                      ---
             STORAGE =   123032720.0000               STORAGE =      853197.6875
       CONSTANT HEAD =           0.0000         CONSTANT HEAD =           0.0000
       RIVER LEAKAGE =   333518240.0000         RIVER LEAKAGE =    13215255.0000
            RECHARGE =      175397.9375              RECHARGE =         198.3446

            TOTAL IN =   456726336.0000              TOTAL IN =    14068651.0000

          OUT:                                     OUT:
          ----                                     ----
             STORAGE =   456019520.0000               STORAGE =    14051762.0000
       CONSTANT HEAD =           0.0000         CONSTANT HEAD =           0.0000
       RIVER LEAKAGE =      840417.1875         RIVER LEAKAGE =       16707.7910
            RECHARGE =           0.0000              RECHARGE =           0.0000

           TOTAL OUT =   456859936.0000             TOTAL OUT =    14068470.0000

            IN - OUT =     -133600.0000              IN - OUT =         181.0000

 PERCENT DISCREPANCY =          -0.03     PERCENT DISCREPANCY =           0.00






         TIME SUMMARY AT END OF TIME STEP  136 IN STRESS PERIOD    1
                    SECONDS     MINUTES      HOURS       DAYS        YEARS
                    -----------------------------------------------------------
   TIME STEP LENGTH  86400.      1440.0      24.000      1.0000     2.73785E-03
 STRESS PERIOD TIME 1.17504E+07 1.95840E+05  3264.0      136.00     0.37235    
         TOTAL TIME 1.17504E+07 1.95840E+05  3264.0      136.00     0.37235    
1
 
 SOLVING FOR HEAD 
                                                   Max.-Head-Change                        Max.-Flux-Residual
  Residual-Control   Outer-Iter.   Inner-Iter.     Column Row Layer    Max.-Head-Change    Column Row Layer    Max.-Flux-Residual            L2-New               L2-Old           Solver-Max-Delh
          0                 1           2            42   61     1       0.2299733727E+01      36   74    1       0.6915881183E+06      0.2599429984E+07      0.3203192388E+03      0.2299733727E+01
          0                 2           2            63   18     1       0.7672439908E+00      36   74    1       0.2265102620E+06      0.3408638480E+06      0.2599429984E+07      0.7672439908E+00
          0                 3           2            63   18     1       0.7671849976E+00      36   74    1      -0.2264932278E+05      0.2602628517E+05      0.3408638480E+06      0.7671849976E+00
          0                 4           2            63   18     1       0.7671260243E+00      36   74    1      -0.1132465870E+04      0.1301275190E+04      0.2602628517E+05      0.7671260243E+00

    ------------------------------------------------
       NWT REQUIRED            4 OUTER ITERATIONS 
       AND A TOTAL OF          8 INNER ITERATIONS.
    ------------------------------------------------

 OUTPUT CONTROL FOR STRESS PERIOD    1   TIME STEP  137
    SAVE HEAD FOR ALL LAYERS
    SAVE DRAWDOWN FOR ALL LAYERS
    SAVE BUDGET
    PRINT BUDGET
 UBDSV1 SAVING "         STORAGE" ON UNIT   9 AT TIME STEP137, STRESS PERIOD   1
 UBDSV2 SAVING "   CONSTANT HEAD" ON UNIT   9 AT TIME STEP137, STRESS PERIOD   1
 UBDSV1 SAVING "FLOW RIGHT FACE " ON UNIT   9 AT TIME STEP137, STRESS PERIOD   1
 UBDSV1 SAVING "FLOW FRONT FACE " ON UNIT   9 AT TIME STEP137, STRESS PERIOD   1
 UBDSV4 SAVING "   RIVER LEAKAGE" ON UNIT   9 AT TIME STEP137, STRESS PERIOD   1
 UBDSV3 SAVING "        RECHARGE" ON UNIT   9 AT TIME STEP137, STRESS PERIOD   1

 HEAD WILL BE SAVED ON UNIT   37 AT END OF TIME STEP  137, STRESS PERIOD    1

 DRAWDOWN WILL BE SAVED ON UNIT   38 AT END OF TIME STEP  137, STRESS PERIOD    1
1
  VOLUMETRIC BUDGET FOR ENTIRE MODEL AT END OF TIME STEP  137, STRESS PERIOD   1
  ------------------------------------------------------------------------------

     CUMULATIVE VOLUMES      L**3       RATES FOR THIS TIME STEP      L**3/T
     ------------------                 ------------------------

           IN:                                      IN:
           ---                                      ---
             STORAGE =   123883824.0000               STORAGE =      851104.1250
       CONSTANT HEAD =           0.0000         CONSTANT HEAD =           0.0000
       RIVER LEAKAGE =   358244480.0000         RIVER LEAKAGE =    24726234.0000
            RECHARGE =      175644.1875              RECHARGE =         246.2515

            TOTAL IN =   482303936.0000              TOTAL IN =    25577584.0000

          OUT:                                     OUT:
          ----                                     ----
             STORAGE =   481582592.0000               STORAGE =    25563070.0000
       CONSTANT HEAD =           0.0000         CONSTANT HEAD =           0.0000
       RIVER LEAKAGE =      855322.3125         RIVER LEAKAGE =       14905.1123
            RECHARGE =           0.0000              RECHARGE =           0.0000

           TOTAL OUT =   482437920.0000             TOTAL OUT =    25577976.0000

            IN - OUT =     -133984.0000              IN - OUT =        -392.0000

 PERCENT DISCREPANCY =          -0.03     PERCENT DISCREPANCY =          -0.00






         TIME SUMMARY AT END OF TIME STEP  137 IN STRESS PERIOD    1
                    SECONDS     MINUTES      HOURS       DAYS        YEARS
                    -----------------------------------------------------------
   TIME STEP LENGTH  86400.      1440.0      24.000      1.0000     2.73785E-03
 STRESS PERIOD TIME 1.18368E+07 1.97280E+05  3288.0      137.00     0.37509    
         TOTAL TIME 1.18368E+07 1.97280E+05  3288.0      137.00     0.37509    
1
 
 SOLVING FOR HEAD 
                                                   Max.-Head-Change                        Max.-Flux-Residual
  Residual-Control   Outer-Iter.   Inner-Iter.     Column Row Layer    Max.-Head-Change    Column Row Layer    Max.-Flux-Residual            L2-New               L2-Old           Solver-Max-Delh
          0                 1           2            63   18     1       0.1190786365E+01      26  115    1      -0.6772550691E+06      0.1285781218E+07      0.6550703489E+02      0.1190786365E+01
          0                 2           2            37   72     1      -0.7105471096E+01      45   58    1      -0.1358584728E+06      0.1862520392E+06      0.1285781218E+07     -0.7105471096E+01
          1                 2           0            37   72     1      -0.4973829683E+01      37   72    1       0.7093893879E+07      0.7093899989E+07      0.1862520392E+06     -0.7105471096E+01
          2                 2           0            37   72     1      -0.3481680719E+01      37   72    1       0.4961434878E+07      0.4961827042E+07      0.7093899989E+07     -0.7105471096E+01
          3                 2           0            37   72     1      -0.2437176461E+01      37   72    1       0.3468659504E+07      0.3470087236E+07      0.4961827042E+07     -0.7105471096E+01
          4                 2           0            37   72     1      -0.1706023494E+01      37   72    1       0.2423690252E+07      0.2426939233E+07      0.3470087236E+07     -0.7105471096E+01
          5                 2           0            37   72     1      -0.1194216425E+01      37   72    1       0.1692198799E+07      0.1698292725E+07      0.2426939233E+07     -0.7105471096E+01
          6                 2           0            37   72     1      -0.8359514836E+00      37   72    1       0.1180148426E+07      0.1190477761E+07      0.1698292725E+07     -0.7105471096E+01
          7                 2           0            37   72     1      -0.5851660285E+00      37   72    1       0.8217100522E+06      0.8381918244E+06      0.1190477761E+07     -0.7105471096E+01
          8                 2           0            37   72     1      -0.4096162130E+00      37   72    1       0.5708016667E+06      0.5960512879E+06      0.8381918244E+06     -0.7105471096E+01
                                                   Max.-Head-Change                        Max.-Flux-Residual
  Residual-Control   Outer-Iter.   Inner-Iter.     Column Row Layer    Max.-Head-Change    Column Row Layer    Max.-Flux-Residual            L2-New               L2-Old           Solver-Max-Delh
          9                 2           0            37   72     1      -0.2867313442E+00      37   72    1       0.3951650511E+06      0.4325939600E+06      0.5960512879E+06     -0.7105471096E+01
         10                 2           0            37   72     1      -0.2007119375E+00      37   72    1       0.2722190553E+06      0.3258400344E+06      0.4325939600E+06     -0.7105471096E+01
         11                 2           0            37   72     1      -0.1404983539E+00      37   72    1       0.1861566799E+06      0.2597969212E+06      0.3258400344E+06     -0.7105471096E+01
         12                 2           0            37   72     1      -0.9834884604E-01      45   58    1      -0.1333064256E+06      0.2219003977E+06      0.2597969212E+06     -0.7105471096E+01
          0                 3           2            63   18     1       0.1190642354E+01      45   58    1      -0.1340720398E+06      0.2019481972E+06      0.2219003977E+06      0.1190642354E+01
          0                 4           2            63   18     1       0.1190500310E+01      37   72    1       0.1486408851E+05      0.1747380967E+05      0.2019481972E+06      0.1190500310E+01
          0                 5           2            63   18     1       0.1190358321E+01      37   72    1       0.2638219270E+04      0.2677902005E+04      0.1747380967E+05      0.1190358321E+01
          0                 6           2            63   18     1       0.1190216382E+01      37   72    1       0.4682307136E+03      0.4689422878E+03      0.2677902005E+04      0.1190216382E+01
          0                 7           2            63   18     1       0.1190074494E+01      37   72    1       0.8309686900E+02      0.8394523006E+02      0.4689422878E+03      0.1190074494E+01
          0                 8           2            63   18     1       0.1189932657E+01      37   72    1       0.1474636599E+02      0.1891671513E+02      0.8394523006E+02      0.1189932657E+01
                                                   Max.-Head-Change                        Max.-Flux-Residual
  Residual-Control   Outer-Iter.   Inner-Iter.     Column Row Layer    Max.-Head-Change    Column Row Layer    Max.-Flux-Residual            L2-New               L2-Old           Solver-Max-Delh
          0                 9           2            63   18     1       0.1189790871E+01      63   18    1       0.1082581806E+02      0.1213330373E+02      0.1891671513E+02      0.1189790871E+01
          0                10           2            63   18     1       0.1189649135E+01      63   18    1       0.1082581806E+02      0.1185629182E+02      0.1213330373E+02      0.1189649135E+01
          0                11           2            63   18     1       0.1189507450E+01      63   18    1       0.1082581806E+02      0.1184691293E+02      0.1185629182E+02      0.1189507450E+01
          0                12           2            63   18     1       0.1189365816E+01      63   18    1       0.1082581806E+02      0.1184607055E+02      0.1184691293E+02      0.1189365816E+01
          0                13           2            63   18     1       0.1189224232E+01      63   18    1       0.1082581806E+02      0.1184550181E+02      0.1184607055E+02      0.1189224232E+01
          0                14           2            63   18     1       0.1189082699E+01      63   18    1       0.1082581806E+02      0.1184494632E+02      0.1184550181E+02      0.1189082699E+01
          0                15           2            63   18     1       0.1188941216E+01      63   18    1       0.1082581806E+02      0.1184439578E+02      0.1184494632E+02      0.1188941216E+01
          0                16           2            63   18     1       0.1188799784E+01      63   18    1       0.1082581806E+02      0.1184384983E+02      0.1184439578E+02      0.1188799784E+01
          0                17           2            63   18     1       0.1188658402E+01      63   18    1       0.1082581806E+02      0.1184330839E+02      0.1184384983E+02      0.1188658402E+01
          0                18           2            63   18     1       0.1188517070E+01      63   18    1       0.1082581806E+02      0.1184277138E+02      0.1184330839E+02      0.1188517070E+01
                                                   Max.-Head-Change                        Max.-Flux-Residual
  Residual-Control   Outer-Iter.   Inner-Iter.     Column Row Layer    Max.-Head-Change    Column Row Layer    Max.-Flux-Residual            L2-New               L2-Old           Solver-Max-Delh
          0                19           2            63   18     1       0.1188375789E+01      63   18    1       0.1082581806E+02      0.1184223873E+02      0.1184277138E+02      0.1188375789E+01
          0                20           2            63   18     1       0.1188234559E+01      63   18    1       0.1082581806E+02      0.1184171038E+02      0.1184223873E+02      0.1188234559E+01
          0                21           2            63   18     1       0.1188093378E+01      63   18    1       0.1082581806E+02      0.1184118625E+02      0.1184171038E+02      0.1188093378E+01
          0                22           2            63   18     1       0.1187952248E+01      63   18    1       0.1082581806E+02      0.1184066629E+02      0.1184118625E+02      0.1187952248E+01
          1                22           0            63   18     1       0.8315665597E+00      63   18    1      -0.1108746824E+06      0.1108746826E+06      0.1184066629E+02      0.1187952248E+01
          2                22           0            63   18     1       0.5820965819E+00      63   18    1      -0.7514191487E+05      0.7514191509E+05      0.1108746826E+06      0.1187952248E+01
          3                22           0            63   18     1       0.4074676004E+00      63   18    1      -0.5013049247E+05      0.5013049275E+05      0.7514191509E+05      0.1187952248E+01
          4                22           0            63   18     1       0.2852273154E+00      63   18    1      -0.3262323918E+05      0.3262323957E+05      0.5013049275E+05      0.1187952248E+01
          5                22           0            63   18     1       0.1996591174E+00      63   18    1      -0.2036852571E+05      0.2036852630E+05      0.3262323957E+05      0.1187952248E+01
          6                22           0            63   18     1       0.1397613798E+00      63   18    1      -0.1179040461E+05      0.1179040559E+05      0.2036852630E+05      0.1187952248E+01
                                                   Max.-Head-Change                        Max.-Flux-Residual
  Residual-Control   Outer-Iter.   Inner-Iter.     Column Row Layer    Max.-Head-Change    Column Row Layer    Max.-Flux-Residual            L2-New               L2-Old           Solver-Max-Delh
          7                22           0            63   18     1       0.9783296419E-01      63   18    1      -0.5785807239E+04      0.5785809232E+04      0.1179040559E+05      0.1187952248E+01
          8                22           0            63   18     1       0.6848307377E-01      63   18    1      -0.1582631933E+04      0.1582639202E+04      0.5785809232E+04      0.1187952248E+01
          0                23           2            63   18     1       0.1187944115E+01      63   18    1       0.1082581806E+02      0.1184063650E+02      0.1582639202E+04      0.1187944115E+01
          1                23           0            63   18     1       0.8315608660E+00      63   18    1      -0.1177405670E+06      0.1177405672E+06      0.1184063650E+02      0.1187944115E+01
          2                23           0            63   18     1       0.5820925963E+00      63   18    1      -0.8200755504E+05      0.8200755525E+05      0.1177405672E+06      0.1187944115E+01
          3                23           0            63   18     1       0.4074648105E+00      63   18    1      -0.5699596155E+05      0.5699596180E+05      0.8200755525E+05      0.1187944115E+01
          4                23           0            63   18     1       0.2852253625E+00      63   18    1      -0.3948858848E+05      0.3948858881E+05      0.5699596180E+05      0.1187944115E+01
          5                23           0            63   18     1       0.1996577503E+00      63   18    1      -0.2723379116E+05      0.2723379161E+05      0.3948858881E+05      0.1187944115E+01
          6                23           0            63   18     1       0.1397604229E+00      63   18    1      -0.1865561135E+05      0.1865561199E+05      0.2723379161E+05      0.1187944115E+01
          7                23           0            63   18     1       0.9783229433E-01      63   18    1      -0.1265097290E+05      0.1265097382E+05      0.1865561199E+05      0.1187944115E+01
                                                   Max.-Head-Change                        Max.-Flux-Residual
  Residual-Control   Outer-Iter.   Inner-Iter.     Column Row Layer    Max.-Head-Change    Column Row Layer    Max.-Flux-Residual            L2-New               L2-Old           Solver-Max-Delh
          8                23           0            63   18     1       0.6848260487E-01      63   18    1      -0.8447768829E+04      0.8447770198E+04      0.1265097382E+05      0.1187944115E+01
          9                23           0            63   18     1       0.4793782259E-01      63   18    1      -0.5505546993E+04      0.5505549087E+04      0.8447770198E+04      0.1187944115E+01
         10                23           0            63   18     1       0.3355647524E-01      63   18    1      -0.3446002014E+04      0.3446005355E+04      0.5505549087E+04      0.1187944115E+01
         11                23           0            63   18     1       0.2348953227E-01      63   18    1      -0.2004325587E+04      0.2004331326E+04      0.3446005355E+04      0.1187944115E+01
         12                23           0            63   18     1       0.1644267231E-01      63   18    1      -0.9951545705E+03      0.9951661284E+03      0.2004331326E+04      0.1187944115E+01
         13                23           0            63   18     1       0.1150987042E-01      63   18    1      -0.2887360797E+03      0.2887759098E+03      0.9951661284E+03      0.1187944115E+01
          0                24           2            63   18     1       0.1187942748E+01      63   18    1       0.1082581806E+02      0.1184063149E+02      0.2887759098E+03      0.1187942748E+01
          1                24           0            63   18     1       0.8315599091E+00      63   18    1      -0.1188945174E+06      0.1188945176E+06      0.1184063149E+02      0.1187942748E+01
          2                24           0            63   18     1       0.5820919265E+00      63   18    1      -0.8316146441E+05      0.8316146462E+05      0.1188945176E+06      0.1187942748E+01
          3                24           0            63   18     1       0.4074643416E+00      63   18    1      -0.5814984216E+05      0.5814984241E+05      0.8316146462E+05      0.1187942748E+01
                                                   Max.-Head-Change                        Max.-Flux-Residual
  Residual-Control   Outer-Iter.   Inner-Iter.     Column Row Layer    Max.-Head-Change    Column Row Layer    Max.-Flux-Residual            L2-New               L2-Old           Solver-Max-Delh
          4                24           0            63   18     1       0.2852250343E+00      63   18    1      -0.4064244896E+05      0.4064244928E+05      0.5814984241E+05      0.1187942748E+01
          5                24           0            63   18     1       0.1996575206E+00      63   18    1      -0.2838763755E+05      0.2838763798E+05      0.4064244928E+05      0.1187942748E+01
          6                24           0            63   18     1       0.1397602620E+00      63   18    1      -0.1980944788E+05      0.1980944848E+05      0.2838763798E+05      0.1187942748E+01
          7                24           0            63   18     1       0.9783218175E-01      63   18    1      -0.1380480252E+05      0.1380480336E+05      0.1980944848E+05      0.1187942748E+01
          8                24           0            63   18     1       0.6848252606E-01      63   18    1      -0.9601593615E+04      0.9601594821E+04      0.1380480336E+05      0.1187942748E+01
          9                24           0            63   18     1       0.4793776742E-01      63   18    1      -0.6659368394E+04      0.6659370127E+04      0.9601594821E+04      0.1187942748E+01
         10                24           0            63   18     1       0.3355643663E-01      63   18    1      -0.4599821047E+04      0.4599823551E+04      0.6659370127E+04      0.1187942748E+01
         11                24           0            63   18     1       0.2348950524E-01      63   18    1      -0.3158142961E+04      0.3158146605E+04      0.4599823551E+04      0.1187942748E+01
         12                24           0            63   18     1       0.1644265339E-01      63   18    1      -0.2148970784E+04      0.2148976138E+04      0.3158146605E+04      0.1187942748E+01
         13                24           0            63   18     1       0.1150985717E-01      63   18    1      -0.1442551481E+04      0.1442559455E+04      0.2148976138E+04      0.1187942748E+01
                                                   Max.-Head-Change                        Max.-Flux-Residual
  Residual-Control   Outer-Iter.   Inner-Iter.     Column Row Layer    Max.-Head-Change    Column Row Layer    Max.-Flux-Residual            L2-New               L2-Old           Solver-Max-Delh
         14                24           0            63   18     1       0.8056899885E-02      63   18    1      -0.9480585690E+03      0.9480707010E+03      0.1442559455E+04      0.1187942748E+01
         15                24           0            63   18     1       0.5639829823E-02      63   18    1      -0.6019138268E+03      0.6019329346E+03      0.9480707010E+03      0.1187942748E+01
         16                24           0            63   18     1       0.3947880809E-02      63   18    1      -0.3596126536E+03      0.3596446343E+03      0.6019329346E+03      0.1187942748E+01
         17                24           0            63   18     1       0.2763516519E-02      63   18    1      -0.1900019048E+03      0.1900624268E+03      0.3596446343E+03      0.1187942748E+01
         18                24           0            63   18     1       0.1934461531E-02      63   18    1      -0.7127441687E+02      0.7143559825E+02      0.1900624268E+03      0.1187942748E+01
          0                25           2            64   18     1       0.4913541328E+00      63   18    1       0.1018415423E+02      0.1125696207E+02      0.7143559825E+02      0.4913541328E+00

    ------------------------------------------------
       NWT REQUIRED           25 OUTER ITERATIONS 
       AND A TOTAL OF         50 INNER ITERATIONS.
    ------------------------------------------------

 OUTPUT CONTROL FOR STRESS PERIOD    1   TIME STEP  138
    SAVE HEAD FOR ALL LAYERS
    SAVE DRAWDOWN FOR ALL LAYERS
    SAVE BUDGET
    PRINT BUDGET
 UBDSV1 SAVING "         STORAGE" ON UNIT   9 AT TIME STEP138, STRESS PERIOD   1
 UBDSV2 SAVING "   CONSTANT HEAD" ON UNIT   9 AT TIME STEP138, STRESS PERIOD   1
 UBDSV1 SAVING "FLOW RIGHT FACE " ON UNIT   9 AT TIME STEP138, STRESS PERIOD   1
 UBDSV1 SAVING "FLOW FRONT FACE " ON UNIT   9 AT TIME STEP138, STRESS PERIOD   1
 UBDSV4 SAVING "   RIVER LEAKAGE" ON UNIT   9 AT TIME STEP138, STRESS PERIOD   1
 UBDSV3 SAVING "        RECHARGE" ON UNIT   9 AT TIME STEP138, STRESS PERIOD   1

 HEAD WILL BE SAVED ON UNIT   37 AT END OF TIME STEP  138, STRESS PERIOD    1

 DRAWDOWN WILL BE SAVED ON UNIT   38 AT END OF TIME STEP  138, STRESS PERIOD    1
1
  VOLUMETRIC BUDGET FOR ENTIRE MODEL AT END OF TIME STEP  138, STRESS PERIOD   1
  ------------------------------------------------------------------------------

     CUMULATIVE VOLUMES      L**3       RATES FOR THIS TIME STEP      L**3/T
     ------------------                 ------------------------

           IN:                                      IN:
           ---                                      ---
             STORAGE =   124738224.0000               STORAGE =      854400.1875
       CONSTANT HEAD =           0.0000         CONSTANT HEAD =           0.0000
       RIVER LEAKAGE =   365657888.0000         RIVER LEAKAGE =     7413418.5000
            RECHARGE =      175923.5781              RECHARGE =         279.3887

            TOTAL IN =   490572032.0000              TOTAL IN =     8268098.0000

          OUT:                                     OUT:
          ----                                     ----
             STORAGE =   489819776.0000               STORAGE =     8237182.0000
       CONSTANT HEAD =           0.0000         CONSTANT HEAD =           0.0000
       RIVER LEAKAGE =      886245.7500         RIVER LEAKAGE =       30923.4355
            RECHARGE =           0.0000              RECHARGE =           0.0000

           TOTAL OUT =   490706016.0000             TOTAL OUT =     8268105.5000

            IN - OUT =     -133984.0000              IN - OUT =          -7.5000

 PERCENT DISCREPANCY =          -0.03     PERCENT DISCREPANCY =          -0.00






         TIME SUMMARY AT END OF TIME STEP  138 IN STRESS PERIOD    1
                    SECONDS     MINUTES      HOURS       DAYS        YEARS
                    -----------------------------------------------------------
   TIME STEP LENGTH  86400.      1440.0      24.000      1.0000     2.73785E-03
 STRESS PERIOD TIME 1.19232E+07 1.98720E+05  3312.0      138.00     0.37782    
         TOTAL TIME 1.19232E+07 1.98720E+05  3312.0      138.00     0.37782    
1
 
 SOLVING FOR HEAD 
                                                   Max.-Head-Change                        Max.-Flux-Residual
  Residual-Control   Outer-Iter.   Inner-Iter.     Column Row Layer    Max.-Head-Change    Column Row Layer    Max.-Flux-Residual            L2-New               L2-Old           Solver-Max-Delh
          0                 1           2            42   62     1       0.7328972200E+00      37   72    1       0.1259996677E+06      0.5546476500E+06      0.1125696207E+02      0.7328972200E+00
          0                 2           2            64   18     1       0.6107805045E+00      37   72    1       0.1071566429E+06      0.1200027756E+06      0.5546476500E+06      0.6107805045E+00
          0                 3           2            64   18     1       0.6107430954E+00      37   72    1      -0.1071555356E+05      0.1105066162E+05      0.1200027756E+06      0.6107430954E+00
          0                 4           2            64   18     1       0.6107056931E+00      37   72    1      -0.5357774321E+03      0.5525568459E+03      0.1105066162E+05      0.6107056931E+00

    ------------------------------------------------
       NWT REQUIRED            4 OUTER ITERATIONS 
       AND A TOTAL OF          8 INNER ITERATIONS.
    ------------------------------------------------

 OUTPUT CONTROL FOR STRESS PERIOD    1   TIME STEP  139
    SAVE HEAD FOR ALL LAYERS
    SAVE DRAWDOWN FOR ALL LAYERS
    SAVE BUDGET
    PRINT BUDGET
 UBDSV1 SAVING "         STORAGE" ON UNIT   9 AT TIME STEP139, STRESS PERIOD   1
 UBDSV2 SAVING "   CONSTANT HEAD" ON UNIT   9 AT TIME STEP139, STRESS PERIOD   1
 UBDSV1 SAVING "FLOW RIGHT FACE " ON UNIT   9 AT TIME STEP139, STRESS PERIOD   1
 UBDSV1 SAVING "FLOW FRONT FACE " ON UNIT   9 AT TIME STEP139, STRESS PERIOD   1
 UBDSV4 SAVING "   RIVER LEAKAGE" ON UNIT   9 AT TIME STEP139, STRESS PERIOD   1
 UBDSV3 SAVING "        RECHARGE" ON UNIT   9 AT TIME STEP139, STRESS PERIOD   1

 HEAD WILL BE SAVED ON UNIT   37 AT END OF TIME STEP  139, STRESS PERIOD    1

 DRAWDOWN WILL BE SAVED ON UNIT   38 AT END OF TIME STEP  139, STRESS PERIOD    1
1
  VOLUMETRIC BUDGET FOR ENTIRE MODEL AT END OF TIME STEP  139, STRESS PERIOD   1
  ------------------------------------------------------------------------------

     CUMULATIVE VOLUMES      L**3       RATES FOR THIS TIME STEP      L**3/T
     ------------------                 ------------------------

           IN:                                      IN:
           ---                                      ---
             STORAGE =   125588416.0000               STORAGE =      850192.1875
       CONSTANT HEAD =           0.0000         CONSTANT HEAD =           0.0000
       RIVER LEAKAGE =   371478528.0000         RIVER LEAKAGE =     5820624.0000
            RECHARGE =      176222.5625              RECHARGE =         298.9915

            TOTAL IN =   497243168.0000              TOTAL IN =     6671115.0000

          OUT:                                     OUT:
          ----                                     ----
             STORAGE =   496457888.0000               STORAGE =     6638125.0000
       CONSTANT HEAD =           0.0000         CONSTANT HEAD =           0.0000
       RIVER LEAKAGE =      919320.3750         RIVER LEAKAGE =       33074.6094
            RECHARGE =           0.0000              RECHARGE =           0.0000

           TOTAL OUT =   497377216.0000             TOTAL OUT =     6671199.5000

            IN - OUT =     -134048.0000              IN - OUT =         -84.5000

 PERCENT DISCREPANCY =          -0.03     PERCENT DISCREPANCY =          -0.00






         TIME SUMMARY AT END OF TIME STEP  139 IN STRESS PERIOD    1
                    SECONDS     MINUTES      HOURS       DAYS        YEARS
                    -----------------------------------------------------------
   TIME STEP LENGTH  86400.      1440.0      24.000      1.0000     2.73785E-03
 STRESS PERIOD TIME 1.20096E+07 2.00160E+05  3336.0      139.00     0.38056    
         TOTAL TIME 1.20096E+07 2.00160E+05  3336.0      139.00     0.38056    
1
 
 SOLVING FOR HEAD 
                                                   Max.-Head-Change                        Max.-Flux-Residual
  Residual-Control   Outer-Iter.   Inner-Iter.     Column Row Layer    Max.-Head-Change    Column Row Layer    Max.-Flux-Residual            L2-New               L2-Old           Solver-Max-Delh
          0                 1           2            64   18     1       0.6829741279E+00      26  115    1      -0.1341592599E+06      0.3907252689E+06      0.2822743596E+02      0.6829741279E+00
          0                 2           2            64   18     1       0.6829273502E+00      56   56    1      -0.1415225572E+05      0.4155710975E+05      0.3907252689E+06      0.6829273502E+00
          0                 3           2            64   18     1       0.6828805821E+00      56   56    1      -0.7076124275E+03      0.2077868410E+04      0.4155710975E+05      0.6828805821E+00

    ------------------------------------------------
       NWT REQUIRED            3 OUTER ITERATIONS 
       AND A TOTAL OF          6 INNER ITERATIONS.
    ------------------------------------------------

 OUTPUT CONTROL FOR STRESS PERIOD    1   TIME STEP  140
    SAVE HEAD FOR ALL LAYERS
    SAVE DRAWDOWN FOR ALL LAYERS
    SAVE BUDGET
    PRINT BUDGET
 UBDSV1 SAVING "         STORAGE" ON UNIT   9 AT TIME STEP140, STRESS PERIOD   1
 UBDSV2 SAVING "   CONSTANT HEAD" ON UNIT   9 AT TIME STEP140, STRESS PERIOD   1
 UBDSV1 SAVING "FLOW RIGHT FACE " ON UNIT   9 AT TIME STEP140, STRESS PERIOD   1
 UBDSV1 SAVING "FLOW FRONT FACE " ON UNIT   9 AT TIME STEP140, STRESS PERIOD   1
 UBDSV4 SAVING "   RIVER LEAKAGE" ON UNIT   9 AT TIME STEP140, STRESS PERIOD   1
 UBDSV3 SAVING "        RECHARGE" ON UNIT   9 AT TIME STEP140, STRESS PERIOD   1

 HEAD WILL BE SAVED ON UNIT   37 AT END OF TIME STEP  140, STRESS PERIOD    1

 DRAWDOWN WILL BE SAVED ON UNIT   38 AT END OF TIME STEP  140, STRESS PERIOD    1
1
  VOLUMETRIC BUDGET FOR ENTIRE MODEL AT END OF TIME STEP  140, STRESS PERIOD   1
  ------------------------------------------------------------------------------

     CUMULATIVE VOLUMES      L**3       RATES FOR THIS TIME STEP      L**3/T
     ------------------                 ------------------------

           IN:                                      IN:
           ---                                      ---
             STORAGE =   126440128.0000               STORAGE =      851715.2500
       CONSTANT HEAD =           0.0000         CONSTANT HEAD =           0.0000
       RIVER LEAKAGE =   373540416.0000         RIVER LEAKAGE =     2061900.1250
            RECHARGE =      176529.8125              RECHARGE =         307.2503

            TOTAL IN =   500157088.0000              TOTAL IN =     2913922.5000

          OUT:                                     OUT:
          ----                                     ----
             STORAGE =   499333696.0000               STORAGE =     2875807.5000
       CONSTANT HEAD =           0.0000         CONSTANT HEAD =           0.0000
       RIVER LEAKAGE =      957562.6875         RIVER LEAKAGE =       38242.2930
            RECHARGE =           0.0000              RECHARGE =           0.0000

           TOTAL OUT =   500291264.0000             TOTAL OUT =     2914049.7500

            IN - OUT =     -134176.0000              IN - OUT =        -127.2500

 PERCENT DISCREPANCY =          -0.03     PERCENT DISCREPANCY =          -0.00






         TIME SUMMARY AT END OF TIME STEP  140 IN STRESS PERIOD    1
                    SECONDS     MINUTES      HOURS       DAYS        YEARS
                    -----------------------------------------------------------
   TIME STEP LENGTH  86400.      1440.0      24.000      1.0000     2.73785E-03
 STRESS PERIOD TIME 1.20960E+07 2.01600E+05  3360.0      140.00     0.38330    
         TOTAL TIME 1.20960E+07 2.01600E+05  3360.0      140.00     0.38330    
1
 
 SOLVING FOR HEAD 
                                                   Max.-Head-Change                        Max.-Flux-Residual
  Residual-Control   Outer-Iter.   Inner-Iter.     Column Row Layer    Max.-Head-Change    Column Row Layer    Max.-Flux-Residual            L2-New               L2-Old           Solver-Max-Delh
          0                 1           2            64   18     1       0.7180769014E+00      14  125    1       0.4346816451E+05      0.1762015902E+06      0.1040723449E+03      0.7180769014E+00
          0                 2           2            64   18     1       0.7180251919E+00      14  125    1      -0.4346857045E+04      0.1762104961E+05      0.1762015902E+06      0.7180251919E+00
          0                 3           2            64   18     1       0.7179734935E+00      14  125    1      -0.2173430443E+03      0.8810844559E+03      0.1762104961E+05      0.7179734935E+00

    ------------------------------------------------
       NWT REQUIRED            3 OUTER ITERATIONS 
       AND A TOTAL OF          6 INNER ITERATIONS.
    ------------------------------------------------

 OUTPUT CONTROL FOR STRESS PERIOD    1   TIME STEP  141
    SAVE HEAD FOR ALL LAYERS
    SAVE DRAWDOWN FOR ALL LAYERS
    SAVE BUDGET
    PRINT BUDGET
 UBDSV1 SAVING "         STORAGE" ON UNIT   9 AT TIME STEP141, STRESS PERIOD   1
 UBDSV2 SAVING "   CONSTANT HEAD" ON UNIT   9 AT TIME STEP141, STRESS PERIOD   1
 UBDSV1 SAVING "FLOW RIGHT FACE " ON UNIT   9 AT TIME STEP141, STRESS PERIOD   1
 UBDSV1 SAVING "FLOW FRONT FACE " ON UNIT   9 AT TIME STEP141, STRESS PERIOD   1
 UBDSV4 SAVING "   RIVER LEAKAGE" ON UNIT   9 AT TIME STEP141, STRESS PERIOD   1
 UBDSV3 SAVING "        RECHARGE" ON UNIT   9 AT TIME STEP141, STRESS PERIOD   1

 HEAD WILL BE SAVED ON UNIT   37 AT END OF TIME STEP  141, STRESS PERIOD    1

 DRAWDOWN WILL BE SAVED ON UNIT   38 AT END OF TIME STEP  141, STRESS PERIOD    1
1
  VOLUMETRIC BUDGET FOR ENTIRE MODEL AT END OF TIME STEP  141, STRESS PERIOD   1
  ------------------------------------------------------------------------------

     CUMULATIVE VOLUMES      L**3       RATES FOR THIS TIME STEP      L**3/T
     ------------------                 ------------------------

           IN:                                      IN:
           ---                                      ---
             STORAGE =   127291480.0000               STORAGE =      851354.0625
       CONSTANT HEAD =           0.0000         CONSTANT HEAD =           0.0000
       RIVER LEAKAGE =   375017152.0000         RIVER LEAKAGE =     1476728.1250
            RECHARGE =      176836.4062              RECHARGE =         306.5889

            TOTAL IN =   502485472.0000              TOTAL IN =     2328388.7500

          OUT:                                     OUT:
          ----                                     ----
             STORAGE =   501625312.0000               STORAGE =     2291611.2500
       CONSTANT HEAD =           0.0000         CONSTANT HEAD =           0.0000
       RIVER LEAKAGE =      994615.3125         RIVER LEAKAGE =       37052.6172
            RECHARGE =           0.0000              RECHARGE =           0.0000

           TOTAL OUT =   502619936.0000             TOTAL OUT =     2328663.7500

            IN - OUT =     -134464.0000              IN - OUT =        -275.0000

 PERCENT DISCREPANCY =          -0.03     PERCENT DISCREPANCY =          -0.01






         TIME SUMMARY AT END OF TIME STEP  141 IN STRESS PERIOD    1
                    SECONDS     MINUTES      HOURS       DAYS        YEARS
                    -----------------------------------------------------------
   TIME STEP LENGTH  86400.      1440.0      24.000      1.0000     2.73785E-03
 STRESS PERIOD TIME 1.21824E+07 2.03040E+05  3384.0      141.00     0.38604    
         TOTAL TIME 1.21824E+07 2.03040E+05  3384.0      141.00     0.38604    
1
 
 SOLVING FOR HEAD 
                                                   Max.-Head-Change                        Max.-Flux-Residual
  Residual-Control   Outer-Iter.   Inner-Iter.     Column Row Layer    Max.-Head-Change    Column Row Layer    Max.-Flux-Residual            L2-New               L2-Old           Solver-Max-Delh
          0                 1           2            64   18     1       0.7251735573E+00      14  125    1       0.4345693866E+05      0.1598923316E+06      0.4456021894E+02      0.7251735573E+00
          0                 2           2            64   18     1       0.7251208208E+00      14  125    1      -0.4345735264E+04      0.1599015976E+05      0.1598923316E+06      0.7251208208E+00
          0                 3           2            64   18     1       0.7250680957E+00      14  125    1      -0.2172869612E+03      0.7995434505E+03      0.1599015976E+05      0.7250680957E+00

    ------------------------------------------------
       NWT REQUIRED            3 OUTER ITERATIONS 
       AND A TOTAL OF          6 INNER ITERATIONS.
    ------------------------------------------------

 OUTPUT CONTROL FOR STRESS PERIOD    1   TIME STEP  142
    SAVE HEAD FOR ALL LAYERS
    SAVE DRAWDOWN FOR ALL LAYERS
    SAVE BUDGET
    PRINT BUDGET
 UBDSV1 SAVING "         STORAGE" ON UNIT   9 AT TIME STEP142, STRESS PERIOD   1
 UBDSV2 SAVING "   CONSTANT HEAD" ON UNIT   9 AT TIME STEP142, STRESS PERIOD   1
 UBDSV1 SAVING "FLOW RIGHT FACE " ON UNIT   9 AT TIME STEP142, STRESS PERIOD   1
 UBDSV1 SAVING "FLOW FRONT FACE " ON UNIT   9 AT TIME STEP142, STRESS PERIOD   1
 UBDSV4 SAVING "   RIVER LEAKAGE" ON UNIT   9 AT TIME STEP142, STRESS PERIOD   1
 UBDSV3 SAVING "        RECHARGE" ON UNIT   9 AT TIME STEP142, STRESS PERIOD   1

 HEAD WILL BE SAVED ON UNIT   37 AT END OF TIME STEP  142, STRESS PERIOD    1

 DRAWDOWN WILL BE SAVED ON UNIT   38 AT END OF TIME STEP  142, STRESS PERIOD    1
1
  VOLUMETRIC BUDGET FOR ENTIRE MODEL AT END OF TIME STEP  142, STRESS PERIOD   1
  ------------------------------------------------------------------------------

     CUMULATIVE VOLUMES      L**3       RATES FOR THIS TIME STEP      L**3/T
     ------------------                 ------------------------

           IN:                                      IN:
           ---                                      ---
             STORAGE =   128143368.0000               STORAGE =      851891.3125
       CONSTANT HEAD =           0.0000         CONSTANT HEAD =           0.0000
       RIVER LEAKAGE =   376299904.0000         RIVER LEAKAGE =     1282746.7500
            RECHARGE =      177135.6875              RECHARGE =         299.2850

            TOTAL IN =   504620384.0000              TOTAL IN =     2134937.2500

          OUT:                                     OUT:
          ----                                     ----
             STORAGE =   503723584.0000               STORAGE =     2098272.7500
       CONSTANT HEAD =           0.0000         CONSTANT HEAD =           0.0000
       RIVER LEAKAGE =     1031548.5625         RIVER LEAKAGE =       36933.2422
            RECHARGE =           0.0000              RECHARGE =           0.0000

           TOTAL OUT =   504755136.0000             TOTAL OUT =     2135206.0000

            IN - OUT =     -134752.0000              IN - OUT =        -268.7500

 PERCENT DISCREPANCY =          -0.03     PERCENT DISCREPANCY =          -0.01






         TIME SUMMARY AT END OF TIME STEP  142 IN STRESS PERIOD    1
                    SECONDS     MINUTES      HOURS       DAYS        YEARS
                    -----------------------------------------------------------
   TIME STEP LENGTH  86400.      1440.0      24.000      1.0000     2.73785E-03
 STRESS PERIOD TIME 1.22688E+07 2.04480E+05  3408.0      142.00     0.38877    
         TOTAL TIME 1.22688E+07 2.04480E+05  3408.0      142.00     0.38877    
1
 
 SOLVING FOR HEAD 
                                                   Max.-Head-Change                        Max.-Flux-Residual
  Residual-Control   Outer-Iter.   Inner-Iter.     Column Row Layer    Max.-Head-Change    Column Row Layer    Max.-Flux-Residual            L2-New               L2-Old           Solver-Max-Delh
          0                 1           2            64   18     1       0.7121200819E+00      14  125    1       0.4344558883E+05      0.1559351171E+06      0.4054644517E+02      0.7121200819E+00
          0                 2           2            64   18     1       0.7120692268E+00      14  125    1      -0.4344600511E+04      0.1559445111E+05      0.1559351171E+06      0.7120692268E+00
          0                 3           2            64   18     1       0.7120183825E+00      14  125    1      -0.2172302256E+03      0.7797578812E+03      0.1559445111E+05      0.7120183825E+00

    ------------------------------------------------
       NWT REQUIRED            3 OUTER ITERATIONS 
       AND A TOTAL OF          6 INNER ITERATIONS.
    ------------------------------------------------

 OUTPUT CONTROL FOR STRESS PERIOD    1   TIME STEP  143
    SAVE HEAD FOR ALL LAYERS
    SAVE DRAWDOWN FOR ALL LAYERS
    SAVE BUDGET
    PRINT BUDGET
 UBDSV1 SAVING "         STORAGE" ON UNIT   9 AT TIME STEP143, STRESS PERIOD   1
 UBDSV2 SAVING "   CONSTANT HEAD" ON UNIT   9 AT TIME STEP143, STRESS PERIOD   1
 UBDSV1 SAVING "FLOW RIGHT FACE " ON UNIT   9 AT TIME STEP143, STRESS PERIOD   1
 UBDSV1 SAVING "FLOW FRONT FACE " ON UNIT   9 AT TIME STEP143, STRESS PERIOD   1
 UBDSV4 SAVING "   RIVER LEAKAGE" ON UNIT   9 AT TIME STEP143, STRESS PERIOD   1
 UBDSV3 SAVING "        RECHARGE" ON UNIT   9 AT TIME STEP143, STRESS PERIOD   1

 HEAD WILL BE SAVED ON UNIT   37 AT END OF TIME STEP  143, STRESS PERIOD    1

 DRAWDOWN WILL BE SAVED ON UNIT   38 AT END OF TIME STEP  143, STRESS PERIOD    1
1
  VOLUMETRIC BUDGET FOR ENTIRE MODEL AT END OF TIME STEP  143, STRESS PERIOD   1
  ------------------------------------------------------------------------------

     CUMULATIVE VOLUMES      L**3       RATES FOR THIS TIME STEP      L**3/T
     ------------------                 ------------------------

           IN:                                      IN:
           ---                                      ---
             STORAGE =   128995712.0000               STORAGE =      852340.8750
       CONSTANT HEAD =           0.0000         CONSTANT HEAD =           0.0000
       RIVER LEAKAGE =   377514784.0000         RIVER LEAKAGE =     1214883.1250
            RECHARGE =      177423.0000              RECHARGE =         287.3167

            TOTAL IN =   506687904.0000              TOTAL IN =     2067511.3750

          OUT:                                     OUT:
          ----                                     ----
             STORAGE =   505754496.0000               STORAGE =     2030911.2500
       CONSTANT HEAD =           0.0000         CONSTANT HEAD =           0.0000
       RIVER LEAKAGE =     1068419.3750         RIVER LEAKAGE =       36870.8398
            RECHARGE =           0.0000              RECHARGE =           0.0000

           TOTAL OUT =   506822912.0000             TOTAL OUT =     2067782.1250

            IN - OUT =     -135008.0000              IN - OUT =        -270.7500

 PERCENT DISCREPANCY =          -0.03     PERCENT DISCREPANCY =          -0.01






         TIME SUMMARY AT END OF TIME STEP  143 IN STRESS PERIOD    1
                    SECONDS     MINUTES      HOURS       DAYS        YEARS
                    -----------------------------------------------------------
   TIME STEP LENGTH  86400.      1440.0      24.000      1.0000     2.73785E-03
 STRESS PERIOD TIME 1.23552E+07 2.05920E+05  3432.0      143.00     0.39151    
         TOTAL TIME 1.23552E+07 2.05920E+05  3432.0      143.00     0.39151    
1
 
 SOLVING FOR HEAD 
                                                   Max.-Head-Change                        Max.-Flux-Residual
  Residual-Control   Outer-Iter.   Inner-Iter.     Column Row Layer    Max.-Head-Change    Column Row Layer    Max.-Flux-Residual            L2-New               L2-Old           Solver-Max-Delh
          0                 1           2            64   18     1       0.6853841341E+00      14  125    1       0.4343418209E+05      0.1534202735E+06      0.3955247315E+02      0.6853841341E+00
          0                 2           2            64   18     1       0.6853370259E+00      14  125    1      -0.4343460019E+04      0.1534297353E+05      0.1534202735E+06      0.6853370259E+00
          0                 3           2            64   18     1       0.6852899273E+00      14  125    1      -0.2171732026E+03      0.7671825392E+03      0.1534297353E+05      0.6852899273E+00

    ------------------------------------------------
       NWT REQUIRED            3 OUTER ITERATIONS 
       AND A TOTAL OF          6 INNER ITERATIONS.
    ------------------------------------------------

 OUTPUT CONTROL FOR STRESS PERIOD    1   TIME STEP  144
    SAVE HEAD FOR ALL LAYERS
    SAVE DRAWDOWN FOR ALL LAYERS
    SAVE BUDGET
    PRINT BUDGET
 UBDSV1 SAVING "         STORAGE" ON UNIT   9 AT TIME STEP144, STRESS PERIOD   1
 UBDSV2 SAVING "   CONSTANT HEAD" ON UNIT   9 AT TIME STEP144, STRESS PERIOD   1
 UBDSV1 SAVING "FLOW RIGHT FACE " ON UNIT   9 AT TIME STEP144, STRESS PERIOD   1
 UBDSV1 SAVING "FLOW FRONT FACE " ON UNIT   9 AT TIME STEP144, STRESS PERIOD   1
 UBDSV4 SAVING "   RIVER LEAKAGE" ON UNIT   9 AT TIME STEP144, STRESS PERIOD   1
 UBDSV3 SAVING "        RECHARGE" ON UNIT   9 AT TIME STEP144, STRESS PERIOD   1

 HEAD WILL BE SAVED ON UNIT   37 AT END OF TIME STEP  144, STRESS PERIOD    1

 DRAWDOWN WILL BE SAVED ON UNIT   38 AT END OF TIME STEP  144, STRESS PERIOD    1
1
  VOLUMETRIC BUDGET FOR ENTIRE MODEL AT END OF TIME STEP  144, STRESS PERIOD   1
  ------------------------------------------------------------------------------

     CUMULATIVE VOLUMES      L**3       RATES FOR THIS TIME STEP      L**3/T
     ------------------                 ------------------------

           IN:                                      IN:
           ---                                      ---
             STORAGE =   129848304.0000               STORAGE =      852594.6250
       CONSTANT HEAD =           0.0000         CONSTANT HEAD =           0.0000
       RIVER LEAKAGE =   378641056.0000         RIVER LEAKAGE =     1126271.5000
            RECHARGE =      177695.3125              RECHARGE =         272.3110

            TOTAL IN =   508667072.0000              TOTAL IN =     1979138.3750

          OUT:                                     OUT:
          ----                                     ----
             STORAGE =   507696992.0000               STORAGE =     1942511.0000
       CONSTANT HEAD =           0.0000         CONSTANT HEAD =           0.0000
       RIVER LEAKAGE =     1105297.3750         RIVER LEAKAGE =       36877.9453
            RECHARGE =           0.0000              RECHARGE =           0.0000

           TOTAL OUT =   508802304.0000             TOTAL OUT =     1979389.0000

            IN - OUT =     -135232.0000              IN - OUT =        -250.6250

 PERCENT DISCREPANCY =          -0.03     PERCENT DISCREPANCY =          -0.01






         TIME SUMMARY AT END OF TIME STEP  144 IN STRESS PERIOD    1
                    SECONDS     MINUTES      HOURS       DAYS        YEARS
                    -----------------------------------------------------------
   TIME STEP LENGTH  86400.      1440.0      24.000      1.0000     2.73785E-03
 STRESS PERIOD TIME 1.24416E+07 2.07360E+05  3456.0      144.00     0.39425    
         TOTAL TIME 1.24416E+07 2.07360E+05  3456.0      144.00     0.39425    
1
 
 SOLVING FOR HEAD 
                                                   Max.-Head-Change                        Max.-Flux-Residual
  Residual-Control   Outer-Iter.   Inner-Iter.     Column Row Layer    Max.-Head-Change    Column Row Layer    Max.-Flux-Residual            L2-New               L2-Old           Solver-Max-Delh
          0                 1           2            64   18     1       0.6500313425E+00      14  125    1       0.4342272355E+05      0.1529008334E+06      0.3889369959E+02      0.6500313425E+00
          0                 2           2            64   18     1       0.6499889686E+00      39   50    1      -0.7597073983E+04      0.1676758810E+05      0.1529008334E+06      0.6499889686E+00
          0                 3           2            64   18     1       0.6499466029E+00      39   50    1      -0.3798535142E+03      0.8384062207E+03      0.1676758810E+05      0.6499466029E+00

    ------------------------------------------------
       NWT REQUIRED            3 OUTER ITERATIONS 
       AND A TOTAL OF          6 INNER ITERATIONS.
    ------------------------------------------------

 OUTPUT CONTROL FOR STRESS PERIOD    1   TIME STEP  145
    SAVE HEAD FOR ALL LAYERS
    SAVE DRAWDOWN FOR ALL LAYERS
    SAVE BUDGET
    PRINT BUDGET
 UBDSV1 SAVING "         STORAGE" ON UNIT   9 AT TIME STEP145, STRESS PERIOD   1
 UBDSV2 SAVING "   CONSTANT HEAD" ON UNIT   9 AT TIME STEP145, STRESS PERIOD   1
 UBDSV1 SAVING "FLOW RIGHT FACE " ON UNIT   9 AT TIME STEP145, STRESS PERIOD   1
 UBDSV1 SAVING "FLOW FRONT FACE " ON UNIT   9 AT TIME STEP145, STRESS PERIOD   1
 UBDSV4 SAVING "   RIVER LEAKAGE" ON UNIT   9 AT TIME STEP145, STRESS PERIOD   1
 UBDSV3 SAVING "        RECHARGE" ON UNIT   9 AT TIME STEP145, STRESS PERIOD   1

 HEAD WILL BE SAVED ON UNIT   37 AT END OF TIME STEP  145, STRESS PERIOD    1

 DRAWDOWN WILL BE SAVED ON UNIT   38 AT END OF TIME STEP  145, STRESS PERIOD    1
1
  VOLUMETRIC BUDGET FOR ENTIRE MODEL AT END OF TIME STEP  145, STRESS PERIOD   1
  ------------------------------------------------------------------------------

     CUMULATIVE VOLUMES      L**3       RATES FOR THIS TIME STEP      L**3/T
     ------------------                 ------------------------

           IN:                                      IN:
           ---                                      ---
             STORAGE =   130700376.0000               STORAGE =      852069.5000
       CONSTANT HEAD =           0.0000         CONSTANT HEAD =           0.0000
       RIVER LEAKAGE =   379734784.0000         RIVER LEAKAGE =     1093730.2500
            RECHARGE =      177950.8594              RECHARGE =         255.5477

            TOTAL IN =   510613120.0000              TOTAL IN =     1946055.2500

          OUT:                                     OUT:
          ----                                     ----
             STORAGE =   509606464.0000               STORAGE =     1909468.5000
       CONSTANT HEAD =           0.0000         CONSTANT HEAD =           0.0000
       RIVER LEAKAGE =     1142153.1250         RIVER LEAKAGE =       36855.7891
            RECHARGE =           0.0000              RECHARGE =           0.0000

           TOTAL OUT =   510748608.0000             TOTAL OUT =     1946324.2500

            IN - OUT =     -135488.0000              IN - OUT =        -269.0000

 PERCENT DISCREPANCY =          -0.03     PERCENT DISCREPANCY =          -0.01






         TIME SUMMARY AT END OF TIME STEP  145 IN STRESS PERIOD    1
                    SECONDS     MINUTES      HOURS       DAYS        YEARS
                    -----------------------------------------------------------
   TIME STEP LENGTH  86400.      1440.0      24.000      1.0000     2.73785E-03
 STRESS PERIOD TIME 1.25280E+07 2.08800E+05  3480.0      145.00     0.39699    
         TOTAL TIME 1.25280E+07 2.08800E+05  3480.0      145.00     0.39699    
1
 
 SOLVING FOR HEAD 
                                                   Max.-Head-Change                        Max.-Flux-Residual
  Residual-Control   Outer-Iter.   Inner-Iter.     Column Row Layer    Max.-Head-Change    Column Row Layer    Max.-Flux-Residual            L2-New               L2-Old           Solver-Max-Delh
          0                 1           2            64   18     1       0.6098586712E+00      43   59    1      -0.4886407760E+05      0.2251162792E+06      0.4236294043E+02      0.6098586712E+00
          0                 2           2            64   18     1       0.6098213728E+00      43   59    1       0.4886407833E+04      0.2251179785E+05      0.2251162792E+06      0.6098213728E+00
          0                 3           2            64   18     1       0.6097840813E+00      43   59    1       0.2443202677E+03      0.1125605555E+04      0.2251179785E+05      0.6097840813E+00

    ------------------------------------------------
       NWT REQUIRED            3 OUTER ITERATIONS 
       AND A TOTAL OF          6 INNER ITERATIONS.
    ------------------------------------------------

 OUTPUT CONTROL FOR STRESS PERIOD    1   TIME STEP  146
    SAVE HEAD FOR ALL LAYERS
    SAVE DRAWDOWN FOR ALL LAYERS
    SAVE BUDGET
    PRINT BUDGET
 UBDSV1 SAVING "         STORAGE" ON UNIT   9 AT TIME STEP146, STRESS PERIOD   1
 UBDSV2 SAVING "   CONSTANT HEAD" ON UNIT   9 AT TIME STEP146, STRESS PERIOD   1
 UBDSV1 SAVING "FLOW RIGHT FACE " ON UNIT   9 AT TIME STEP146, STRESS PERIOD   1
 UBDSV1 SAVING "FLOW FRONT FACE " ON UNIT   9 AT TIME STEP146, STRESS PERIOD   1
 UBDSV4 SAVING "   RIVER LEAKAGE" ON UNIT   9 AT TIME STEP146, STRESS PERIOD   1
 UBDSV3 SAVING "        RECHARGE" ON UNIT   9 AT TIME STEP146, STRESS PERIOD   1

 HEAD WILL BE SAVED ON UNIT   37 AT END OF TIME STEP  146, STRESS PERIOD    1

 DRAWDOWN WILL BE SAVED ON UNIT   38 AT END OF TIME STEP  146, STRESS PERIOD    1
1
  VOLUMETRIC BUDGET FOR ENTIRE MODEL AT END OF TIME STEP  146, STRESS PERIOD   1
  ------------------------------------------------------------------------------

     CUMULATIVE VOLUMES      L**3       RATES FOR THIS TIME STEP      L**3/T
     ------------------                 ------------------------

           IN:                                      IN:
           ---                                      ---
             STORAGE =   131546912.0000               STORAGE =      846534.5625
       CONSTANT HEAD =           0.0000         CONSTANT HEAD =           0.0000
       RIVER LEAKAGE =   381557760.0000         RIVER LEAKAGE =     1822976.2500
            RECHARGE =      178188.8594              RECHARGE =         237.9928

            TOTAL IN =   513282848.0000              TOTAL IN =     2669748.7500

          OUT:                                     OUT:
          ----                                     ----
             STORAGE =   512239840.0000               STORAGE =     2633383.2500
       CONSTANT HEAD =           0.0000         CONSTANT HEAD =           0.0000
       RIVER LEAKAGE =     1178974.3750         RIVER LEAKAGE =       36821.2344
            RECHARGE =           0.0000              RECHARGE =           0.0000

           TOTAL OUT =   513418816.0000             TOTAL OUT =     2670204.5000

            IN - OUT =     -135968.0000              IN - OUT =        -455.7500

 PERCENT DISCREPANCY =          -0.03     PERCENT DISCREPANCY =          -0.02






         TIME SUMMARY AT END OF TIME STEP  146 IN STRESS PERIOD    1
                    SECONDS     MINUTES      HOURS       DAYS        YEARS
                    -----------------------------------------------------------
   TIME STEP LENGTH  86400.      1440.0      24.000      1.0000     2.73785E-03
 STRESS PERIOD TIME 1.26144E+07 2.10240E+05  3504.0      146.00     0.39973    
         TOTAL TIME 1.26144E+07 2.10240E+05  3504.0      146.00     0.39973    
1
 
 SOLVING FOR HEAD 
                                                   Max.-Head-Change                        Max.-Flux-Residual
  Residual-Control   Outer-Iter.   Inner-Iter.     Column Row Layer    Max.-Head-Change    Column Row Layer    Max.-Flux-Residual            L2-New               L2-Old           Solver-Max-Delh
          0                 1           2            64   18     1       0.5676051983E+00      14  125    1       0.4340069079E+05      0.1977418527E+06      0.5656901054E+02      0.5676051983E+00
          0                 2           2            49   40     1       0.2343264467E+02      14  125    1      -0.4340105338E+04      0.2008514085E+05      0.1977418527E+06      0.2343264467E+02
          1                 2           0            49   40     1       0.1640285099E+02      49   40    1      -0.1802712933E+07      0.1818267513E+07      0.2008514085E+05      0.2343264467E+02
          2                 2           0            49   40     1       0.1148199550E+02      49   40    1      -0.1259513834E+07      0.1270380722E+07      0.1818267513E+07      0.2343264467E+02
          3                 2           0            49   40     1       0.8037396712E+01      49   40    1      -0.8792744703E+06      0.8868941538E+06      0.1270380722E+07      0.2343264467E+02
          4                 2           0            49   40     1       0.5626177603E+01      49   40    1      -0.6131069205E+06      0.6185015497E+06      0.8868941538E+06      0.2343264467E+02
          5                 2           0            49   40     1       0.3938324255E+01      49   40    1      -0.4267896388E+06      0.4306964378E+06      0.6185015497E+06      0.2343264467E+02
          6                 2           0            49   40     1       0.2756826931E+01      49   40    1      -0.2963675439E+06      0.2993342601E+06      0.4306964378E+06      0.2343264467E+02
          7                 2           0            49   40     1       0.1929778819E+01      49   40    1      -0.2050720789E+06      0.2075289416E+06      0.2993342601E+06      0.2343264467E+02
          8                 2           0            49   40     1       0.1350845150E+01      49   40    1      -0.1411652546E+06      0.1434833622E+06      0.2075289416E+06      0.2343264467E+02
                                                   Max.-Head-Change                        Max.-Flux-Residual
  Residual-Control   Outer-Iter.   Inner-Iter.     Column Row Layer    Max.-Head-Change    Column Row Layer    Max.-Flux-Residual            L2-New               L2-Old           Solver-Max-Delh
          9                 2           0            49   40     1       0.9455915891E+00      49   40    1      -0.9643047827E+05      0.9897511172E+05      0.1434833622E+06      0.2343264467E+02
         10                 2           0            49   40     1       0.6619141011E+00      49   40    1      -0.6511613540E+05      0.6830237880E+05      0.9897511172E+05      0.2343264467E+02
         11                 2           0            49   40     1       0.4633398629E+00      49   40    1      -0.4319609577E+05      0.4754940287E+05      0.6830237880E+05      0.2343264467E+02
         12                 2           0            49   40     1       0.3243378985E+00      49   40    1      -0.2785206828E+05      0.3405509803E+05      0.4754940287E+05      0.2343264467E+02
         13                 2           0            49   40     1       0.2270365251E+00      49   40    1      -0.1711124922E+05      0.2596133369E+05      0.3405509803E+05      0.2343264467E+02
          0                 3           2            64   18     1       0.5675725761E+00      49   40    1      -0.9592676012E+04      0.2176345694E+05      0.2596133369E+05      0.5675725761E+00
          0                 4           2            64   18     1       0.5675402724E+00      57   54    1      -0.2738303227E+04      0.2949780977E+04      0.2176345694E+05      0.5675402724E+00
          1                 4           0            64   18     1       0.3972781839E+00      64   18    1      -0.1550030278E+05      0.1550102396E+05      0.2949780977E+04      0.5675402724E+00
          0                 5           2            64   18     1       0.5675176634E+00      57   54    1      -0.9173315635E+03      0.9888971924E+03      0.1550102396E+05      0.5675176634E+00
          1                 5           0            64   18     1       0.3972623576E+00      64   18    1      -0.5523917078E+05      0.5523919402E+05      0.9888971924E+03      0.5675176634E+00
                                                   Max.-Head-Change                        Max.-Flux-Residual
  Residual-Control   Outer-Iter.   Inner-Iter.     Column Row Layer    Max.-Head-Change    Column Row Layer    Max.-Flux-Residual            L2-New               L2-Old           Solver-Max-Delh
          2                 5           0            64   18     1       0.2780836456E+00      64   18    1      -0.3820754796E+05      0.3820898744E+05      0.5523919402E+05      0.5675176634E+00
          3                 5           0            64   18     1       0.1946585486E+00      64   18    1      -0.2628575816E+05      0.2629107680E+05      0.3820898744E+05      0.5675176634E+00
          4                 5           0            64   18     1       0.1362609817E+00      64   18    1      -0.1794067498E+05      0.1795306308E+05      0.2629107680E+05      0.5675176634E+00
          5                 5           0            64   18     1       0.9538268556E-01      64   18    1      -0.1209919992E+05      0.1212326195E+05      0.1795306308E+05      0.5675176634E+00
          6                 5           0            64   18     1       0.6676787875E-01      64   18    1      -0.8010208154E+04      0.8053205372E+04      0.1212326195E+05      0.5675176634E+00
          7                 5           0            64   18     1       0.4673751433E-01      64   18    1      -0.5147933912E+04      0.5222340271E+04      0.8053205372E+04      0.5675176634E+00
          8                 5           0            64   18     1       0.3271625948E-01      64   18    1      -0.3144351749E+04      0.3273817705E+04      0.5222340271E+04      0.5675176634E+00
          9                 5           0            64   18     1       0.2290138124E-01      64   18    1      -0.1741849048E+04      0.1976816558E+04      0.3273817705E+04      0.5675176634E+00
         10                 5           0            64   18     1       0.1603096660E-01      57   54    1      -0.8821644422E+03      0.1217431377E+04      0.1976816558E+04      0.5675176634E+00
          0                 6           2            28   66     1       0.8365421365E-01      57   54    1      -0.8927145790E+03      0.9651156483E+03      0.1217431377E+04      0.8365421365E-01

    ------------------------------------------------
       NWT REQUIRED            6 OUTER ITERATIONS 
       AND A TOTAL OF         12 INNER ITERATIONS.
    ------------------------------------------------

 OUTPUT CONTROL FOR STRESS PERIOD    1   TIME STEP  147
    SAVE HEAD FOR ALL LAYERS
    SAVE DRAWDOWN FOR ALL LAYERS
    SAVE BUDGET
    PRINT BUDGET
 UBDSV1 SAVING "         STORAGE" ON UNIT   9 AT TIME STEP147, STRESS PERIOD   1
 UBDSV2 SAVING "   CONSTANT HEAD" ON UNIT   9 AT TIME STEP147, STRESS PERIOD   1
 UBDSV1 SAVING "FLOW RIGHT FACE " ON UNIT   9 AT TIME STEP147, STRESS PERIOD   1
 UBDSV1 SAVING "FLOW FRONT FACE " ON UNIT   9 AT TIME STEP147, STRESS PERIOD   1
 UBDSV4 SAVING "   RIVER LEAKAGE" ON UNIT   9 AT TIME STEP147, STRESS PERIOD   1
 UBDSV3 SAVING "        RECHARGE" ON UNIT   9 AT TIME STEP147, STRESS PERIOD   1

 HEAD WILL BE SAVED ON UNIT   37 AT END OF TIME STEP  147, STRESS PERIOD    1

 DRAWDOWN WILL BE SAVED ON UNIT   38 AT END OF TIME STEP  147, STRESS PERIOD    1
1
  VOLUMETRIC BUDGET FOR ENTIRE MODEL AT END OF TIME STEP  147, STRESS PERIOD   1
  ------------------------------------------------------------------------------

     CUMULATIVE VOLUMES      L**3       RATES FOR THIS TIME STEP      L**3/T
     ------------------                 ------------------------

           IN:                                      IN:
           ---                                      ---
             STORAGE =   132392784.0000               STORAGE =      845872.1250
       CONSTANT HEAD =           0.0000         CONSTANT HEAD =           0.0000
       RIVER LEAKAGE =   383385600.0000         RIVER LEAKAGE =     1827826.2500
            RECHARGE =      178409.2031              RECHARGE =         220.3496

            TOTAL IN =   515956800.0000              TOTAL IN =     2673918.7500

          OUT:                                     OUT:
          ----                                     ----
             STORAGE =   514877248.0000               STORAGE =     2637417.0000
       CONSTANT HEAD =           0.0000         CONSTANT HEAD =           0.0000
       RIVER LEAKAGE =     1215675.1250         RIVER LEAKAGE =       36700.7773
            RECHARGE =           0.0000              RECHARGE =           0.0000

           TOTAL OUT =   516092928.0000             TOTAL OUT =     2674117.7500

            IN - OUT =     -136128.0000              IN - OUT =        -199.0000

 PERCENT DISCREPANCY =          -0.03     PERCENT DISCREPANCY =          -0.01






         TIME SUMMARY AT END OF TIME STEP  147 IN STRESS PERIOD    1
                    SECONDS     MINUTES      HOURS       DAYS        YEARS
                    -----------------------------------------------------------
   TIME STEP LENGTH  86400.      1440.0      24.000      1.0000     2.73785E-03
 STRESS PERIOD TIME 1.27008E+07 2.11680E+05  3528.0      147.00     0.40246    
         TOTAL TIME 1.27008E+07 2.11680E+05  3528.0      147.00     0.40246    
1
 
 SOLVING FOR HEAD 
                                                   Max.-Head-Change                        Max.-Flux-Residual
  Residual-Control   Outer-Iter.   Inner-Iter.     Column Row Layer    Max.-Head-Change    Column Row Layer    Max.-Flux-Residual            L2-New               L2-Old           Solver-Max-Delh
          0                 1           2            42   62     1       0.2984664246E+00      34   98    1       0.5195481501E+05      0.2834790100E+06      0.4932777002E+02      0.2984664246E+00
          0                 2           2            28   66     1       0.8387620387E-01      34   98    1      -0.5195532113E+04      0.2838576932E+05      0.2834790100E+06      0.8387620387E-01
          0                 3           2            28   66     1       0.8368674361E-01      42   62    1      -0.3084854394E+03      0.1444217333E+04      0.2838576932E+05      0.8368674361E-01

    ------------------------------------------------
       NWT REQUIRED            3 OUTER ITERATIONS 
       AND A TOTAL OF          6 INNER ITERATIONS.
    ------------------------------------------------

 OUTPUT CONTROL FOR STRESS PERIOD    1   TIME STEP  148
    SAVE HEAD FOR ALL LAYERS
    SAVE DRAWDOWN FOR ALL LAYERS
    SAVE BUDGET
    PRINT BUDGET
 UBDSV1 SAVING "         STORAGE" ON UNIT   9 AT TIME STEP148, STRESS PERIOD   1
 UBDSV2 SAVING "   CONSTANT HEAD" ON UNIT   9 AT TIME STEP148, STRESS PERIOD   1
 UBDSV1 SAVING "FLOW RIGHT FACE " ON UNIT   9 AT TIME STEP148, STRESS PERIOD   1
 UBDSV1 SAVING "FLOW FRONT FACE " ON UNIT   9 AT TIME STEP148, STRESS PERIOD   1
 UBDSV4 SAVING "   RIVER LEAKAGE" ON UNIT   9 AT TIME STEP148, STRESS PERIOD   1
 UBDSV3 SAVING "        RECHARGE" ON UNIT   9 AT TIME STEP148, STRESS PERIOD   1

 HEAD WILL BE SAVED ON UNIT   37 AT END OF TIME STEP  148, STRESS PERIOD    1

 DRAWDOWN WILL BE SAVED ON UNIT   38 AT END OF TIME STEP  148, STRESS PERIOD    1
1
  VOLUMETRIC BUDGET FOR ENTIRE MODEL AT END OF TIME STEP  148, STRESS PERIOD   1
  ------------------------------------------------------------------------------

     CUMULATIVE VOLUMES      L**3       RATES FOR THIS TIME STEP      L**3/T
     ------------------                 ------------------------

           IN:                                      IN:
           ---                                      ---
             STORAGE =   133238120.0000               STORAGE =      845337.9375
       CONSTANT HEAD =           0.0000         CONSTANT HEAD =           0.0000
       RIVER LEAKAGE =   386124832.0000         RIVER LEAKAGE =     2739235.2500
            RECHARGE =      178612.3125              RECHARGE =         203.1100

            TOTAL IN =   519541568.0000              TOTAL IN =     3584776.2500

          OUT:                                     OUT:
          ----                                     ----
             STORAGE =   518426048.0000               STORAGE =     3548795.0000
       CONSTANT HEAD =           0.0000         CONSTANT HEAD =           0.0000
       RIVER LEAKAGE =     1252425.0000         RIVER LEAKAGE =       36749.8320
            RECHARGE =           0.0000              RECHARGE =           0.0000

           TOTAL OUT =   519678464.0000             TOTAL OUT =     3585544.7500

            IN - OUT =     -136896.0000              IN - OUT =        -768.5000

 PERCENT DISCREPANCY =          -0.03     PERCENT DISCREPANCY =          -0.02






         TIME SUMMARY AT END OF TIME STEP  148 IN STRESS PERIOD    1
                    SECONDS     MINUTES      HOURS       DAYS        YEARS
                    -----------------------------------------------------------
   TIME STEP LENGTH  86400.      1440.0      24.000      1.0000     2.73785E-03
 STRESS PERIOD TIME 1.27872E+07 2.13120E+05  3552.0      148.00     0.40520    
         TOTAL TIME 1.27872E+07 2.13120E+05  3552.0      148.00     0.40520    
1
 
 SOLVING FOR HEAD 
                                                   Max.-Head-Change                        Max.-Flux-Residual
  Residual-Control   Outer-Iter.   Inner-Iter.     Column Row Layer    Max.-Head-Change    Column Row Layer    Max.-Flux-Residual            L2-New               L2-Old           Solver-Max-Delh
          0                 1           2            41   64     1       0.1921967635E+01      26  115    1       0.4295682766E+06      0.1744514055E+07      0.7221939010E+02      0.1921967635E+01
          0                 2           2            41   64     1      -0.3232797846E+00      26  115    1      -0.4295707616E+05      0.1774173260E+06      0.1744514055E+07     -0.3232797846E+00
          0                 3           2            28   66     1       0.8371143422E-01      26  115    1      -0.2147854569E+04      0.8872978211E+04      0.1774173260E+06      0.8371143422E-01

    ------------------------------------------------
       NWT REQUIRED            3 OUTER ITERATIONS 
       AND A TOTAL OF          6 INNER ITERATIONS.
    ------------------------------------------------

 OUTPUT CONTROL FOR STRESS PERIOD    1   TIME STEP  149
    SAVE HEAD FOR ALL LAYERS
    SAVE DRAWDOWN FOR ALL LAYERS
    SAVE BUDGET
    PRINT BUDGET
 UBDSV1 SAVING "         STORAGE" ON UNIT   9 AT TIME STEP149, STRESS PERIOD   1
 UBDSV2 SAVING "   CONSTANT HEAD" ON UNIT   9 AT TIME STEP149, STRESS PERIOD   1
 UBDSV1 SAVING "FLOW RIGHT FACE " ON UNIT   9 AT TIME STEP149, STRESS PERIOD   1
 UBDSV1 SAVING "FLOW FRONT FACE " ON UNIT   9 AT TIME STEP149, STRESS PERIOD   1
 UBDSV4 SAVING "   RIVER LEAKAGE" ON UNIT   9 AT TIME STEP149, STRESS PERIOD   1
 UBDSV3 SAVING "        RECHARGE" ON UNIT   9 AT TIME STEP149, STRESS PERIOD   1

 HEAD WILL BE SAVED ON UNIT   37 AT END OF TIME STEP  149, STRESS PERIOD    1

 DRAWDOWN WILL BE SAVED ON UNIT   38 AT END OF TIME STEP  149, STRESS PERIOD    1
1
  VOLUMETRIC BUDGET FOR ENTIRE MODEL AT END OF TIME STEP  149, STRESS PERIOD   1
  ------------------------------------------------------------------------------

     CUMULATIVE VOLUMES      L**3       RATES FOR THIS TIME STEP      L**3/T
     ------------------                 ------------------------

           IN:                                      IN:
           ---                                      ---
             STORAGE =   134082536.0000               STORAGE =      844418.9375
       CONSTANT HEAD =           0.0000         CONSTANT HEAD =           0.0000
       RIVER LEAKAGE =   399787360.0000         RIVER LEAKAGE =    13662520.0000
            RECHARGE =      178798.9062              RECHARGE =         186.5965

            TOTAL IN =   534048672.0000              TOTAL IN =    14507126.0000

          OUT:                                     OUT:
          ----                                     ----
             STORAGE =   532902432.0000               STORAGE =    14476390.0000
       CONSTANT HEAD =           0.0000         CONSTANT HEAD =           0.0000
       RIVER LEAKAGE =     1287984.3750         RIVER LEAKAGE =       35559.3633
            RECHARGE =           0.0000              RECHARGE =           0.0000

           TOTAL OUT =   534190432.0000             TOTAL OUT =    14511949.0000

            IN - OUT =     -141760.0000              IN - OUT =       -4823.0000

 PERCENT DISCREPANCY =          -0.03     PERCENT DISCREPANCY =          -0.03






         TIME SUMMARY AT END OF TIME STEP  149 IN STRESS PERIOD    1
                    SECONDS     MINUTES      HOURS       DAYS        YEARS
                    -----------------------------------------------------------
   TIME STEP LENGTH  86400.      1440.0      24.000      1.0000     2.73785E-03
 STRESS PERIOD TIME 1.28736E+07 2.14560E+05  3576.0      149.00     0.40794    
         TOTAL TIME 1.28736E+07 2.14560E+05  3576.0      149.00     0.40794    
1
 
 SOLVING FOR HEAD 
                                                   Max.-Head-Change                        Max.-Flux-Residual
  Residual-Control   Outer-Iter.   Inner-Iter.     Column Row Layer    Max.-Head-Change    Column Row Layer    Max.-Flux-Residual            L2-New               L2-Old           Solver-Max-Delh
          0                 1           2            57   36     1       0.1246068421E+01      19  122    1       0.2674069443E+06      0.1209546582E+07      0.4435639454E+03      0.1246068421E+01
          0                 2           2            57   36     1      -0.1077356462E+00      19  122    1      -0.2674268874E+05      0.1209626112E+06      0.1209546582E+07     -0.1077356462E+00
          0                 3           2            28   66     1       0.8372874218E-01      19  122    1      -0.1337148634E+04      0.6048187154E+04      0.1209626112E+06      0.8372874218E-01

    ------------------------------------------------
       NWT REQUIRED            3 OUTER ITERATIONS 
       AND A TOTAL OF          6 INNER ITERATIONS.
    ------------------------------------------------

 OUTPUT CONTROL FOR STRESS PERIOD    1   TIME STEP  150
    SAVE HEAD FOR ALL LAYERS
    SAVE DRAWDOWN FOR ALL LAYERS
    SAVE BUDGET
    PRINT BUDGET
 UBDSV1 SAVING "         STORAGE" ON UNIT   9 AT TIME STEP150, STRESS PERIOD   1
 UBDSV2 SAVING "   CONSTANT HEAD" ON UNIT   9 AT TIME STEP150, STRESS PERIOD   1
 UBDSV1 SAVING "FLOW RIGHT FACE " ON UNIT   9 AT TIME STEP150, STRESS PERIOD   1
 UBDSV1 SAVING "FLOW FRONT FACE " ON UNIT   9 AT TIME STEP150, STRESS PERIOD   1
 UBDSV4 SAVING "   RIVER LEAKAGE" ON UNIT   9 AT TIME STEP150, STRESS PERIOD   1
 UBDSV3 SAVING "        RECHARGE" ON UNIT   9 AT TIME STEP150, STRESS PERIOD   1

 HEAD WILL BE SAVED ON UNIT   37 AT END OF TIME STEP  150, STRESS PERIOD    1

 DRAWDOWN WILL BE SAVED ON UNIT   38 AT END OF TIME STEP  150, STRESS PERIOD    1
1
  VOLUMETRIC BUDGET FOR ENTIRE MODEL AT END OF TIME STEP  150, STRESS PERIOD   1
  ------------------------------------------------------------------------------

     CUMULATIVE VOLUMES      L**3       RATES FOR THIS TIME STEP      L**3/T
     ------------------                 ------------------------

           IN:                                      IN:
           ---                                      ---
             STORAGE =   134928144.0000               STORAGE =      845608.5625
       CONSTANT HEAD =           0.0000         CONSTANT HEAD =           0.0000
       RIVER LEAKAGE =   411353824.0000         RIVER LEAKAGE =    11566461.0000
            RECHARGE =      178969.9062              RECHARGE =         171.0023

            TOTAL IN =   546460928.0000              TOTAL IN =    12412241.0000

          OUT:                                     OUT:
          ----                                     ----
             STORAGE =   545278720.0000               STORAGE =    12376282.0000
       CONSTANT HEAD =           0.0000         CONSTANT HEAD =           0.0000
       RIVER LEAKAGE =     1326480.0000         RIVER LEAKAGE =       38495.6836
            RECHARGE =           0.0000              RECHARGE =           0.0000

           TOTAL OUT =   546605184.0000             TOTAL OUT =    12414778.0000

            IN - OUT =     -144256.0000              IN - OUT =       -2537.0000

 PERCENT DISCREPANCY =          -0.03     PERCENT DISCREPANCY =          -0.02






         TIME SUMMARY AT END OF TIME STEP  150 IN STRESS PERIOD    1
                    SECONDS     MINUTES      HOURS       DAYS        YEARS
                    -----------------------------------------------------------
   TIME STEP LENGTH  86400.      1440.0      24.000      1.0000     2.73785E-03
 STRESS PERIOD TIME 1.29600E+07 2.16000E+05  3600.0      150.00     0.41068    
         TOTAL TIME 1.29600E+07 2.16000E+05  3600.0      150.00     0.41068    
1
 
 SOLVING FOR HEAD 
                                                   Max.-Head-Change                        Max.-Flux-Residual
  Residual-Control   Outer-Iter.   Inner-Iter.     Column Row Layer    Max.-Head-Change    Column Row Layer    Max.-Flux-Residual            L2-New               L2-Old           Solver-Max-Delh
          0                 1           2            38   71     1      -0.8440222638E+00      26  115    1      -0.3545604262E+06      0.7982407391E+06      0.3023544237E+03     -0.8440222638E+00
          0                 2           2            28   66     1       0.8393212521E-01      26  115    1       0.3545610962E+05      0.7986228777E+05      0.7982407391E+06      0.8393212521E-01
          0                 3           2            28   66     1       0.8373871816E-01      26  115    1       0.1772805079E+04      0.4008911073E+04      0.7986228777E+05      0.8373871816E-01

    ------------------------------------------------
       NWT REQUIRED            3 OUTER ITERATIONS 
       AND A TOTAL OF          6 INNER ITERATIONS.
    ------------------------------------------------

 OUTPUT CONTROL FOR STRESS PERIOD    1   TIME STEP  151
    SAVE HEAD FOR ALL LAYERS
    SAVE DRAWDOWN FOR ALL LAYERS
    SAVE BUDGET
    PRINT BUDGET
 UBDSV1 SAVING "         STORAGE" ON UNIT   9 AT TIME STEP151, STRESS PERIOD   1
 UBDSV2 SAVING "   CONSTANT HEAD" ON UNIT   9 AT TIME STEP151, STRESS PERIOD   1
 UBDSV1 SAVING "FLOW RIGHT FACE " ON UNIT   9 AT TIME STEP151, STRESS PERIOD   1
 UBDSV1 SAVING "FLOW FRONT FACE " ON UNIT   9 AT TIME STEP151, STRESS PERIOD   1
 UBDSV4 SAVING "   RIVER LEAKAGE" ON UNIT   9 AT TIME STEP151, STRESS PERIOD   1
 UBDSV3 SAVING "        RECHARGE" ON UNIT   9 AT TIME STEP151, STRESS PERIOD   1

 HEAD WILL BE SAVED ON UNIT   37 AT END OF TIME STEP  151, STRESS PERIOD    1

 DRAWDOWN WILL BE SAVED ON UNIT   38 AT END OF TIME STEP  151, STRESS PERIOD    1
1
  VOLUMETRIC BUDGET FOR ENTIRE MODEL AT END OF TIME STEP  151, STRESS PERIOD   1
  ------------------------------------------------------------------------------

     CUMULATIVE VOLUMES      L**3       RATES FOR THIS TIME STEP      L**3/T
     ------------------                 ------------------------

           IN:                                      IN:
           ---                                      ---
             STORAGE =   135775664.0000               STORAGE =      847525.7500
       CONSTANT HEAD =           0.0000         CONSTANT HEAD =           0.0000
       RIVER LEAKAGE =   414788544.0000         RIVER LEAKAGE =     3434715.2500
            RECHARGE =      179126.3281              RECHARGE =         156.4270

            TOTAL IN =   550743360.0000              TOTAL IN =     4282397.5000

          OUT:                                     OUT:
          ----                                     ----
             STORAGE =   549520128.0000               STORAGE =     4241382.0000
       CONSTANT HEAD =           0.0000         CONSTANT HEAD =           0.0000
       RIVER LEAKAGE =     1367475.7500         RIVER LEAKAGE =       40995.7422
            RECHARGE =           0.0000              RECHARGE =           0.0000

           TOTAL OUT =   550887616.0000             TOTAL OUT =     4282377.5000

            IN - OUT =     -144256.0000              IN - OUT =          20.0000

 PERCENT DISCREPANCY =          -0.03     PERCENT DISCREPANCY =           0.00






         TIME SUMMARY AT END OF TIME STEP  151 IN STRESS PERIOD    1
                    SECONDS     MINUTES      HOURS       DAYS        YEARS
                    -----------------------------------------------------------
   TIME STEP LENGTH  86400.      1440.0      24.000      1.0000     2.73785E-03
 STRESS PERIOD TIME 1.30464E+07 2.17440E+05  3624.0      151.00     0.41342    
         TOTAL TIME 1.30464E+07 2.17440E+05  3624.0      151.00     0.41342    
1
 
 SOLVING FOR HEAD 
                                                   Max.-Head-Change                        Max.-Flux-Residual
  Residual-Control   Outer-Iter.   Inner-Iter.     Column Row Layer    Max.-Head-Change    Column Row Layer    Max.-Flux-Residual            L2-New               L2-Old           Solver-Max-Delh
          0                 1           2            57   36     1       0.5554237618E+00      57   36    1       0.5058666166E+05      0.2993875083E+06      0.2004142913E+03      0.5554237618E+00
          0                 2           2            28   66     1       0.8393610322E-01      34   98    1      -0.4982433602E+04      0.2954551858E+05      0.2993875083E+06      0.8393610322E-01
          0                 3           2            28   66     1       0.8374141367E-01      34   98    1      -0.2491219031E+03      0.1477289471E+04      0.2954551858E+05      0.8374141367E-01

    ------------------------------------------------
       NWT REQUIRED            3 OUTER ITERATIONS 
       AND A TOTAL OF          6 INNER ITERATIONS.
    ------------------------------------------------

 OUTPUT CONTROL FOR STRESS PERIOD    1   TIME STEP  152
    SAVE HEAD FOR ALL LAYERS
    SAVE DRAWDOWN FOR ALL LAYERS
    SAVE BUDGET
    PRINT BUDGET
 UBDSV1 SAVING "         STORAGE" ON UNIT   9 AT TIME STEP152, STRESS PERIOD   1
 UBDSV2 SAVING "   CONSTANT HEAD" ON UNIT   9 AT TIME STEP152, STRESS PERIOD   1
 UBDSV1 SAVING "FLOW RIGHT FACE " ON UNIT   9 AT TIME STEP152, STRESS PERIOD   1
 UBDSV1 SAVING "FLOW FRONT FACE " ON UNIT   9 AT TIME STEP152, STRESS PERIOD   1
 UBDSV4 SAVING "   RIVER LEAKAGE" ON UNIT   9 AT TIME STEP152, STRESS PERIOD   1
 UBDSV3 SAVING "        RECHARGE" ON UNIT   9 AT TIME STEP152, STRESS PERIOD   1

 HEAD WILL BE SAVED ON UNIT   37 AT END OF TIME STEP  152, STRESS PERIOD    1

 DRAWDOWN WILL BE SAVED ON UNIT   38 AT END OF TIME STEP  152, STRESS PERIOD    1
1
  VOLUMETRIC BUDGET FOR ENTIRE MODEL AT END OF TIME STEP  152, STRESS PERIOD   1
  ------------------------------------------------------------------------------

     CUMULATIVE VOLUMES      L**3       RATES FOR THIS TIME STEP      L**3/T
     ------------------                 ------------------------

           IN:                                      IN:
           ---                                      ---
             STORAGE =   136618880.0000               STORAGE =      843212.4375
       CONSTANT HEAD =           0.0000         CONSTANT HEAD =           0.0000
       RIVER LEAKAGE =   417779168.0000         RIVER LEAKAGE =     2990620.5000
            RECHARGE =      179269.2344              RECHARGE =         142.9052

            TOTAL IN =   554577280.0000              TOTAL IN =     3833976.0000

          OUT:                                     OUT:
          ----                                     ----
             STORAGE =   553316608.0000               STORAGE =     3796501.5000
       CONSTANT HEAD =           0.0000         CONSTANT HEAD =           0.0000
       RIVER LEAKAGE =     1405593.2500         RIVER LEAKAGE =       38117.4453
            RECHARGE =           0.0000              RECHARGE =           0.0000

           TOTAL OUT =   554722176.0000             TOTAL OUT =     3834619.0000

            IN - OUT =     -144896.0000              IN - OUT =        -643.0000

 PERCENT DISCREPANCY =          -0.03     PERCENT DISCREPANCY =          -0.02






         TIME SUMMARY AT END OF TIME STEP  152 IN STRESS PERIOD    1
                    SECONDS     MINUTES      HOURS       DAYS        YEARS
                    -----------------------------------------------------------
   TIME STEP LENGTH  86400.      1440.0      24.000      1.0000     2.73785E-03
 STRESS PERIOD TIME 1.31328E+07 2.18880E+05  3648.0      152.00     0.41615    
         TOTAL TIME 1.31328E+07 2.18880E+05  3648.0      152.00     0.41615    
1
 
 SOLVING FOR HEAD 
                                                   Max.-Head-Change                        Max.-Flux-Residual
  Residual-Control   Outer-Iter.   Inner-Iter.     Column Row Layer    Max.-Head-Change    Column Row Layer    Max.-Flux-Residual            L2-New               L2-Old           Solver-Max-Delh
          0                 1           2            62   17     1       0.5106549046E+00      34   98    1       0.4809787655E+05      0.2727443727E+06      0.7387317500E+02      0.5106549046E+00
          0                 2           2            28   66     1       0.8393283024E-01      34   98    1      -0.4809831595E+04      0.2727644133E+05      0.2727443727E+06      0.8393283024E-01
          0                 3           2            28   66     1       0.8373687510E-01      34   98    1      -0.2404917849E+03      0.1363837449E+04      0.2727644133E+05      0.8373687510E-01

    ------------------------------------------------
       NWT REQUIRED            3 OUTER ITERATIONS 
       AND A TOTAL OF          6 INNER ITERATIONS.
    ------------------------------------------------

 OUTPUT CONTROL FOR STRESS PERIOD    1   TIME STEP  153
    SAVE HEAD FOR ALL LAYERS
    SAVE DRAWDOWN FOR ALL LAYERS
    SAVE BUDGET
    PRINT BUDGET
 UBDSV1 SAVING "         STORAGE" ON UNIT   9 AT TIME STEP153, STRESS PERIOD   1
 UBDSV2 SAVING "   CONSTANT HEAD" ON UNIT   9 AT TIME STEP153, STRESS PERIOD   1
 UBDSV1 SAVING "FLOW RIGHT FACE " ON UNIT   9 AT TIME STEP153, STRESS PERIOD   1
 UBDSV1 SAVING "FLOW FRONT FACE " ON UNIT   9 AT TIME STEP153, STRESS PERIOD   1
 UBDSV4 SAVING "   RIVER LEAKAGE" ON UNIT   9 AT TIME STEP153, STRESS PERIOD   1
 UBDSV3 SAVING "        RECHARGE" ON UNIT   9 AT TIME STEP153, STRESS PERIOD   1

 HEAD WILL BE SAVED ON UNIT   37 AT END OF TIME STEP  153, STRESS PERIOD    1

 DRAWDOWN WILL BE SAVED ON UNIT   38 AT END OF TIME STEP  153, STRESS PERIOD    1
1
  VOLUMETRIC BUDGET FOR ENTIRE MODEL AT END OF TIME STEP  153, STRESS PERIOD   1
  ------------------------------------------------------------------------------

     CUMULATIVE VOLUMES      L**3       RATES FOR THIS TIME STEP      L**3/T
     ------------------                 ------------------------

           IN:                                      IN:
           ---                                      ---
             STORAGE =   137461120.0000               STORAGE =      842232.3125
       CONSTANT HEAD =           0.0000         CONSTANT HEAD =           0.0000
       RIVER LEAKAGE =   420636832.0000         RIVER LEAKAGE =     2857671.5000
            RECHARGE =      179399.6562              RECHARGE =         130.4283

            TOTAL IN =   558277376.0000              TOTAL IN =     3700034.2500

          OUT:                                     OUT:
          ----                                     ----
             STORAGE =   556979520.0000               STORAGE =     3662899.2500
       CONSTANT HEAD =           0.0000         CONSTANT HEAD =           0.0000
       RIVER LEAKAGE =     1443416.5000         RIVER LEAKAGE =       37823.2656
            RECHARGE =           0.0000              RECHARGE =           0.0000

           TOTAL OUT =   558422912.0000             TOTAL OUT =     3700722.5000

            IN - OUT =     -145536.0000              IN - OUT =        -688.2500

 PERCENT DISCREPANCY =          -0.03     PERCENT DISCREPANCY =          -0.02






         TIME SUMMARY AT END OF TIME STEP  153 IN STRESS PERIOD    1
                    SECONDS     MINUTES      HOURS       DAYS        YEARS
                    -----------------------------------------------------------
   TIME STEP LENGTH  86400.      1440.0      24.000      1.0000     2.73785E-03
 STRESS PERIOD TIME 1.32192E+07 2.20320E+05  3672.0      153.00     0.41889    
         TOTAL TIME 1.32192E+07 2.20320E+05  3672.0      153.00     0.41889    
1
 
 SOLVING FOR HEAD 
                                                   Max.-Head-Change                        Max.-Flux-Residual
  Residual-Control   Outer-Iter.   Inner-Iter.     Column Row Layer    Max.-Head-Change    Column Row Layer    Max.-Flux-Residual            L2-New               L2-Old           Solver-Max-Delh
          0                 1           2            62   17     1       0.6329874031E+00      62   17    1       0.5761024689E+05      0.3068780664E+06      0.6820423596E+02      0.6329874031E+00
          0                 2           2            28   66     1       0.8392235738E-01      62   17    1      -0.5765033242E+04      0.3066217198E+05      0.3068780664E+06      0.8392235738E-01
          0                 3           2            28   66     1       0.8372515377E-01      62   17    1      -0.2882814479E+03      0.1539771216E+04      0.3066217198E+05      0.8372515377E-01

    ------------------------------------------------
       NWT REQUIRED            3 OUTER ITERATIONS 
       AND A TOTAL OF          6 INNER ITERATIONS.
    ------------------------------------------------

 OUTPUT CONTROL FOR STRESS PERIOD    1   TIME STEP  154
    SAVE HEAD FOR ALL LAYERS
    SAVE DRAWDOWN FOR ALL LAYERS
    SAVE BUDGET
    PRINT BUDGET
 UBDSV1 SAVING "         STORAGE" ON UNIT   9 AT TIME STEP154, STRESS PERIOD   1
 UBDSV2 SAVING "   CONSTANT HEAD" ON UNIT   9 AT TIME STEP154, STRESS PERIOD   1
 UBDSV1 SAVING "FLOW RIGHT FACE " ON UNIT   9 AT TIME STEP154, STRESS PERIOD   1
 UBDSV1 SAVING "FLOW FRONT FACE " ON UNIT   9 AT TIME STEP154, STRESS PERIOD   1
 UBDSV4 SAVING "   RIVER LEAKAGE" ON UNIT   9 AT TIME STEP154, STRESS PERIOD   1
 UBDSV3 SAVING "        RECHARGE" ON UNIT   9 AT TIME STEP154, STRESS PERIOD   1

 HEAD WILL BE SAVED ON UNIT   37 AT END OF TIME STEP  154, STRESS PERIOD    1

 DRAWDOWN WILL BE SAVED ON UNIT   38 AT END OF TIME STEP  154, STRESS PERIOD    1
1
  VOLUMETRIC BUDGET FOR ENTIRE MODEL AT END OF TIME STEP  154, STRESS PERIOD   1
  ------------------------------------------------------------------------------

     CUMULATIVE VOLUMES      L**3       RATES FOR THIS TIME STEP      L**3/T
     ------------------                 ------------------------

           IN:                                      IN:
           ---                                      ---
             STORAGE =   138302704.0000               STORAGE =      841580.8750
       CONSTANT HEAD =           0.0000         CONSTANT HEAD =           0.0000
       RIVER LEAKAGE =   423874912.0000         RIVER LEAKAGE =     3238080.2500
            RECHARGE =      179518.6094              RECHARGE =         118.9602

            TOTAL IN =   562357120.0000              TOTAL IN =     4079780.0000

          OUT:                                     OUT:
          ----                                     ----
             STORAGE =   561022592.0000               STORAGE =     4043042.2500
       CONSTANT HEAD =           0.0000         CONSTANT HEAD =           0.0000
       RIVER LEAKAGE =     1481007.6250         RIVER LEAKAGE =       37591.0664
            RECHARGE =           0.0000              RECHARGE =           0.0000

           TOTAL OUT =   562503616.0000             TOTAL OUT =     4080633.2500

            IN - OUT =     -146496.0000              IN - OUT =        -853.2500

 PERCENT DISCREPANCY =          -0.03     PERCENT DISCREPANCY =          -0.02






         TIME SUMMARY AT END OF TIME STEP  154 IN STRESS PERIOD    1
                    SECONDS     MINUTES      HOURS       DAYS        YEARS
                    -----------------------------------------------------------
   TIME STEP LENGTH  86400.      1440.0      24.000      1.0000     2.73785E-03
 STRESS PERIOD TIME 1.33056E+07 2.21760E+05  3696.0      154.00     0.42163    
         TOTAL TIME 1.33056E+07 2.21760E+05  3696.0      154.00     0.42163    
1
 
 SOLVING FOR HEAD 
                                                   Max.-Head-Change                        Max.-Flux-Residual
  Residual-Control   Outer-Iter.   Inner-Iter.     Column Row Layer    Max.-Head-Change    Column Row Layer    Max.-Flux-Residual            L2-New               L2-Old           Solver-Max-Delh
          0                 1           2            62   17     1       0.7487011491E+00      62   17    1       0.6814568676E+05      0.2865816791E+06      0.7699701885E+02      0.7487011491E+00
          0                 2           2            63   26     1       0.8590900240E-01      62   17    1      -0.6820176608E+04      0.2866281670E+05      0.2865816791E+06      0.8590900240E-01
          0                 3           2            63   26     1       0.8487483681E-01      62   17    1      -0.3410505410E+03      0.1433175852E+04      0.2866281670E+05      0.8487483681E-01

    ------------------------------------------------
       NWT REQUIRED            3 OUTER ITERATIONS 
       AND A TOTAL OF          6 INNER ITERATIONS.
    ------------------------------------------------

 OUTPUT CONTROL FOR STRESS PERIOD    1   TIME STEP  155
    SAVE HEAD FOR ALL LAYERS
    SAVE DRAWDOWN FOR ALL LAYERS
    SAVE BUDGET
    PRINT BUDGET
 UBDSV1 SAVING "         STORAGE" ON UNIT   9 AT TIME STEP155, STRESS PERIOD   1
 UBDSV2 SAVING "   CONSTANT HEAD" ON UNIT   9 AT TIME STEP155, STRESS PERIOD   1
 UBDSV1 SAVING "FLOW RIGHT FACE " ON UNIT   9 AT TIME STEP155, STRESS PERIOD   1
 UBDSV1 SAVING "FLOW FRONT FACE " ON UNIT   9 AT TIME STEP155, STRESS PERIOD   1
 UBDSV4 SAVING "   RIVER LEAKAGE" ON UNIT   9 AT TIME STEP155, STRESS PERIOD   1
 UBDSV3 SAVING "        RECHARGE" ON UNIT   9 AT TIME STEP155, STRESS PERIOD   1

 HEAD WILL BE SAVED ON UNIT   37 AT END OF TIME STEP  155, STRESS PERIOD    1

 DRAWDOWN WILL BE SAVED ON UNIT   38 AT END OF TIME STEP  155, STRESS PERIOD    1
1
  VOLUMETRIC BUDGET FOR ENTIRE MODEL AT END OF TIME STEP  155, STRESS PERIOD   1
  ------------------------------------------------------------------------------

     CUMULATIVE VOLUMES      L**3       RATES FOR THIS TIME STEP      L**3/T
     ------------------                 ------------------------

           IN:                                      IN:
           ---                                      ---
             STORAGE =   139143920.0000               STORAGE =      841209.1250
       CONSTANT HEAD =           0.0000         CONSTANT HEAD =           0.0000
       RIVER LEAKAGE =   426852096.0000         RIVER LEAKAGE =     2977199.0000
            RECHARGE =      179627.0625              RECHARGE =         108.4483

            TOTAL IN =   566175616.0000              TOTAL IN =     3818516.5000

          OUT:                                     OUT:
          ----                                     ----
             STORAGE =   564803840.0000               STORAGE =     3781258.2500
       CONSTANT HEAD =           0.0000         CONSTANT HEAD =           0.0000
       RIVER LEAKAGE =     1518962.5000         RIVER LEAKAGE =       37954.9062
            RECHARGE =           0.0000              RECHARGE =           0.0000

           TOTAL OUT =   566322816.0000             TOTAL OUT =     3819213.2500

            IN - OUT =     -147200.0000              IN - OUT =        -696.7500

 PERCENT DISCREPANCY =          -0.03     PERCENT DISCREPANCY =          -0.02






         TIME SUMMARY AT END OF TIME STEP  155 IN STRESS PERIOD    1
                    SECONDS     MINUTES      HOURS       DAYS        YEARS
                    -----------------------------------------------------------
   TIME STEP LENGTH  86400.      1440.0      24.000      1.0000     2.73785E-03
 STRESS PERIOD TIME 1.33920E+07 2.23200E+05  3720.0      155.00     0.42437    
         TOTAL TIME 1.33920E+07 2.23200E+05  3720.0      155.00     0.42437    
1
 
 SOLVING FOR HEAD 
                                                   Max.-Head-Change                        Max.-Flux-Residual
  Residual-Control   Outer-Iter.   Inner-Iter.     Column Row Layer    Max.-Head-Change    Column Row Layer    Max.-Flux-Residual            L2-New               L2-Old           Solver-Max-Delh
          0                 1           2            62   17     1       0.6278024093E+00      62   17    1       0.5714552171E+05      0.2465868698E+06      0.7167078353E+02      0.6278024093E+00
          0                 2           2            63   26     1       0.9152058452E-01      62   17    1      -0.5718495331E+04      0.2466157265E+05      0.2465868698E+06      0.9152058452E-01
          0                 3           2            63   26     1       0.9037305494E-01      62   17    1      -0.2859540650E+03      0.1233100824E+04      0.2466157265E+05      0.9037305494E-01

    ------------------------------------------------
       NWT REQUIRED            3 OUTER ITERATIONS 
       AND A TOTAL OF          6 INNER ITERATIONS.
    ------------------------------------------------

 OUTPUT CONTROL FOR STRESS PERIOD    1   TIME STEP  156
    SAVE HEAD FOR ALL LAYERS
    SAVE DRAWDOWN FOR ALL LAYERS
    SAVE BUDGET
    PRINT BUDGET
 UBDSV1 SAVING "         STORAGE" ON UNIT   9 AT TIME STEP156, STRESS PERIOD   1
 UBDSV2 SAVING "   CONSTANT HEAD" ON UNIT   9 AT TIME STEP156, STRESS PERIOD   1
 UBDSV1 SAVING "FLOW RIGHT FACE " ON UNIT   9 AT TIME STEP156, STRESS PERIOD   1
 UBDSV1 SAVING "FLOW FRONT FACE " ON UNIT   9 AT TIME STEP156, STRESS PERIOD   1
 UBDSV4 SAVING "   RIVER LEAKAGE" ON UNIT   9 AT TIME STEP156, STRESS PERIOD   1
 UBDSV3 SAVING "        RECHARGE" ON UNIT   9 AT TIME STEP156, STRESS PERIOD   1

 HEAD WILL BE SAVED ON UNIT   37 AT END OF TIME STEP  156, STRESS PERIOD    1

 DRAWDOWN WILL BE SAVED ON UNIT   38 AT END OF TIME STEP  156, STRESS PERIOD    1
1
  VOLUMETRIC BUDGET FOR ENTIRE MODEL AT END OF TIME STEP  156, STRESS PERIOD   1
  ------------------------------------------------------------------------------

     CUMULATIVE VOLUMES      L**3       RATES FOR THIS TIME STEP      L**3/T
     ------------------                 ------------------------

           IN:                                      IN:
           ---                                      ---
             STORAGE =   139984912.0000               STORAGE =      840993.1875
       CONSTANT HEAD =           0.0000         CONSTANT HEAD =           0.0000
       RIVER LEAKAGE =   429265920.0000         RIVER LEAKAGE =     2413831.2500
            RECHARGE =      179725.8906              RECHARGE =          98.8320

            TOTAL IN =   569430528.0000              TOTAL IN =     3254923.2500

          OUT:                                     OUT:
          ----                                     ----
             STORAGE =   568020992.0000               STORAGE =     3217165.0000
       CONSTANT HEAD =           0.0000         CONSTANT HEAD =           0.0000
       RIVER LEAKAGE =     1557215.8750         RIVER LEAKAGE =       38253.3555
            RECHARGE =           0.0000              RECHARGE =           0.0000

           TOTAL OUT =   569578176.0000             TOTAL OUT =     3255418.2500

            IN - OUT =     -147648.0000              IN - OUT =        -495.0000

 PERCENT DISCREPANCY =          -0.03     PERCENT DISCREPANCY =          -0.02






         TIME SUMMARY AT END OF TIME STEP  156 IN STRESS PERIOD    1
                    SECONDS     MINUTES      HOURS       DAYS        YEARS
                    -----------------------------------------------------------
   TIME STEP LENGTH  86400.      1440.0      24.000      1.0000     2.73785E-03
 STRESS PERIOD TIME 1.34784E+07 2.24640E+05  3744.0      156.00     0.42710    
         TOTAL TIME 1.34784E+07 2.24640E+05  3744.0      156.00     0.42710    
1
 
 SOLVING FOR HEAD 
                                                   Max.-Head-Change                        Max.-Flux-Residual
  Residual-Control   Outer-Iter.   Inner-Iter.     Column Row Layer    Max.-Head-Change    Column Row Layer    Max.-Flux-Residual            L2-New               L2-Old           Solver-Max-Delh
          0                 1           2            62   17     1       0.7429979361E+00      62   17    1       0.6763504761E+05      0.3219733721E+06      0.6167418230E+02      0.7429979361E+00
          0                 2           2            63   26     1       0.9910561739E-01      62   17    1      -0.6769027587E+04      0.3220128736E+05      0.3219733721E+06      0.9910561739E-01
          0                 3           2            63   26     1       0.9780731073E-01      62   17    1      -0.3384924552E+03      0.1610094037E+04      0.3220128736E+05      0.9780731073E-01
          1                 3           0            63   26     1       0.6846511635E-01      34   43    1      -0.2667080192E+04      0.2668295132E+04      0.1610094037E+04      0.9780731073E-01
          0                 4           2            63   26     1       0.9690496094E-01      34   43    1      -0.9520988835E+03      0.1094264898E+04      0.2668295132E+04      0.9690496094E-01

    ------------------------------------------------
       NWT REQUIRED            4 OUTER ITERATIONS 
       AND A TOTAL OF          8 INNER ITERATIONS.
    ------------------------------------------------

 OUTPUT CONTROL FOR STRESS PERIOD    1   TIME STEP  157
    SAVE HEAD FOR ALL LAYERS
    SAVE DRAWDOWN FOR ALL LAYERS
    SAVE BUDGET
    PRINT BUDGET
 UBDSV1 SAVING "         STORAGE" ON UNIT   9 AT TIME STEP157, STRESS PERIOD   1
 UBDSV2 SAVING "   CONSTANT HEAD" ON UNIT   9 AT TIME STEP157, STRESS PERIOD   1
 UBDSV1 SAVING "FLOW RIGHT FACE " ON UNIT   9 AT TIME STEP157, STRESS PERIOD   1
 UBDSV1 SAVING "FLOW FRONT FACE " ON UNIT   9 AT TIME STEP157, STRESS PERIOD   1
 UBDSV4 SAVING "   RIVER LEAKAGE" ON UNIT   9 AT TIME STEP157, STRESS PERIOD   1
 UBDSV3 SAVING "        RECHARGE" ON UNIT   9 AT TIME STEP157, STRESS PERIOD   1

 HEAD WILL BE SAVED ON UNIT   37 AT END OF TIME STEP  157, STRESS PERIOD    1

 DRAWDOWN WILL BE SAVED ON UNIT   38 AT END OF TIME STEP  157, STRESS PERIOD    1
1
  VOLUMETRIC BUDGET FOR ENTIRE MODEL AT END OF TIME STEP  157, STRESS PERIOD   1
  ------------------------------------------------------------------------------

     CUMULATIVE VOLUMES      L**3       RATES FOR THIS TIME STEP      L**3/T
     ------------------                 ------------------------

           IN:                                      IN:
           ---                                      ---
             STORAGE =   140824736.0000               STORAGE =      839820.5625
       CONSTANT HEAD =           0.0000         CONSTANT HEAD =           0.0000
       RIVER LEAKAGE =   432567648.0000         RIVER LEAKAGE =     3301738.5000
            RECHARGE =      179815.9375              RECHARGE =          90.0473

            TOTAL IN =   573572224.0000              TOTAL IN =     4141649.0000

          OUT:                                     OUT:
          ----                                     ----
             STORAGE =   572125504.0000               STORAGE =     4104529.0000
       CONSTANT HEAD =           0.0000         CONSTANT HEAD =           0.0000
       RIVER LEAKAGE =     1594690.8750         RIVER LEAKAGE =       37475.0078
            RECHARGE =           0.0000              RECHARGE =           0.0000

           TOTAL OUT =   573720192.0000             TOTAL OUT =     4142004.0000

            IN - OUT =     -147968.0000              IN - OUT =        -355.0000

 PERCENT DISCREPANCY =          -0.03     PERCENT DISCREPANCY =          -0.01






         TIME SUMMARY AT END OF TIME STEP  157 IN STRESS PERIOD    1
                    SECONDS     MINUTES      HOURS       DAYS        YEARS
                    -----------------------------------------------------------
   TIME STEP LENGTH  86400.      1440.0      24.000      1.0000     2.73785E-03
 STRESS PERIOD TIME 1.35648E+07 2.26080E+05  3768.0      157.00     0.42984    
         TOTAL TIME 1.35648E+07 2.26080E+05  3768.0      157.00     0.42984    
1
 
 SOLVING FOR HEAD 
                                                   Max.-Head-Change                        Max.-Flux-Residual
  Residual-Control   Outer-Iter.   Inner-Iter.     Column Row Layer    Max.-Head-Change    Column Row Layer    Max.-Flux-Residual            L2-New               L2-Old           Solver-Max-Delh
          0                 1           2            62   17     1       0.8454810653E+00      62   17    1       0.7696929945E+05      0.3152627410E+06      0.5474291884E+02      0.8454810653E+00
          0                 2           2            54   37     1       0.1765123649E+00      54   37    1       0.1202803781E+05      0.3486517279E+05      0.3152627410E+06      0.1765123649E+00
          0                 3           2            63   26     1       0.1061821757E+00      54   37    1      -0.1202797957E+04      0.2196711289E+04      0.3486517279E+05      0.1061821757E+00

    ------------------------------------------------
       NWT REQUIRED            3 OUTER ITERATIONS 
       AND A TOTAL OF          6 INNER ITERATIONS.
    ------------------------------------------------

 OUTPUT CONTROL FOR STRESS PERIOD    1   TIME STEP  158
    SAVE HEAD FOR ALL LAYERS
    SAVE DRAWDOWN FOR ALL LAYERS
    SAVE BUDGET
    PRINT BUDGET
 UBDSV1 SAVING "         STORAGE" ON UNIT   9 AT TIME STEP158, STRESS PERIOD   1
 UBDSV2 SAVING "   CONSTANT HEAD" ON UNIT   9 AT TIME STEP158, STRESS PERIOD   1
 UBDSV1 SAVING "FLOW RIGHT FACE " ON UNIT   9 AT TIME STEP158, STRESS PERIOD   1
 UBDSV1 SAVING "FLOW FRONT FACE " ON UNIT   9 AT TIME STEP158, STRESS PERIOD   1
 UBDSV4 SAVING "   RIVER LEAKAGE" ON UNIT   9 AT TIME STEP158, STRESS PERIOD   1
 UBDSV3 SAVING "        RECHARGE" ON UNIT   9 AT TIME STEP158, STRESS PERIOD   1

 HEAD WILL BE SAVED ON UNIT   37 AT END OF TIME STEP  158, STRESS PERIOD    1

 DRAWDOWN WILL BE SAVED ON UNIT   38 AT END OF TIME STEP  158, STRESS PERIOD    1
1
  VOLUMETRIC BUDGET FOR ENTIRE MODEL AT END OF TIME STEP  158, STRESS PERIOD   1
  ------------------------------------------------------------------------------

     CUMULATIVE VOLUMES      L**3       RATES FOR THIS TIME STEP      L**3/T
     ------------------                 ------------------------

           IN:                                      IN:
           ---                                      ---
             STORAGE =   141664272.0000               STORAGE =      839532.6875
       CONSTANT HEAD =           0.0000         CONSTANT HEAD =           0.0000
       RIVER LEAKAGE =   435807232.0000         RIVER LEAKAGE =     3239573.0000
            RECHARGE =      179897.9688              RECHARGE =          82.0301

            TOTAL IN =   577651392.0000              TOTAL IN =     4079187.7500

          OUT:                                     OUT:
          ----                                     ----
             STORAGE =   576167744.0000               STORAGE =     4042234.0000
       CONSTANT HEAD =           0.0000         CONSTANT HEAD =           0.0000
       RIVER LEAKAGE =     1632563.1250         RIVER LEAKAGE =       37872.2891
            RECHARGE =           0.0000              RECHARGE =           0.0000

           TOTAL OUT =   577800320.0000             TOTAL OUT =     4080106.2500

            IN - OUT =     -148928.0000              IN - OUT =        -918.5000

 PERCENT DISCREPANCY =          -0.03     PERCENT DISCREPANCY =          -0.02






         TIME SUMMARY AT END OF TIME STEP  158 IN STRESS PERIOD    1
                    SECONDS     MINUTES      HOURS       DAYS        YEARS
                    -----------------------------------------------------------
   TIME STEP LENGTH  86400.      1440.0      24.000      1.0000     2.73785E-03
 STRESS PERIOD TIME 1.36512E+07 2.27520E+05  3792.0      158.00     0.43258    
         TOTAL TIME 1.36512E+07 2.27520E+05  3792.0      158.00     0.43258    
1
 
 SOLVING FOR HEAD 
                                                   Max.-Head-Change                        Max.-Flux-Residual
  Residual-Control   Outer-Iter.   Inner-Iter.     Column Row Layer    Max.-Head-Change    Column Row Layer    Max.-Flux-Residual            L2-New               L2-Old           Solver-Max-Delh
          0                 1           2            62   17     1       0.9398216601E+00      62   17    1       0.8556428307E+05      0.4235031010E+06      0.1098422069E+03      0.9398216601E+00
          0                 2           2            63   26     1       0.1214651015E+00      62   17    1      -0.8565264402E+04      0.4235885687E+05      0.4235031010E+06      0.1214651015E+00
          0                 3           2            63   26     1       0.1196924925E+00      62   17    1      -0.4283290192E+03      0.2118006161E+04      0.4235885687E+05      0.1196924925E+00

    ------------------------------------------------
       NWT REQUIRED            3 OUTER ITERATIONS 
       AND A TOTAL OF          6 INNER ITERATIONS.
    ------------------------------------------------

 OUTPUT CONTROL FOR STRESS PERIOD    1   TIME STEP  159
    SAVE HEAD FOR ALL LAYERS
    SAVE DRAWDOWN FOR ALL LAYERS
    SAVE BUDGET
    PRINT BUDGET
 UBDSV1 SAVING "         STORAGE" ON UNIT   9 AT TIME STEP159, STRESS PERIOD   1
 UBDSV2 SAVING "   CONSTANT HEAD" ON UNIT   9 AT TIME STEP159, STRESS PERIOD   1
 UBDSV1 SAVING "FLOW RIGHT FACE " ON UNIT   9 AT TIME STEP159, STRESS PERIOD   1
 UBDSV1 SAVING "FLOW FRONT FACE " ON UNIT   9 AT TIME STEP159, STRESS PERIOD   1
 UBDSV4 SAVING "   RIVER LEAKAGE" ON UNIT   9 AT TIME STEP159, STRESS PERIOD   1
 UBDSV3 SAVING "        RECHARGE" ON UNIT   9 AT TIME STEP159, STRESS PERIOD   1

 HEAD WILL BE SAVED ON UNIT   37 AT END OF TIME STEP  159, STRESS PERIOD    1

 DRAWDOWN WILL BE SAVED ON UNIT   38 AT END OF TIME STEP  159, STRESS PERIOD    1
1
  VOLUMETRIC BUDGET FOR ENTIRE MODEL AT END OF TIME STEP  159, STRESS PERIOD   1
  ------------------------------------------------------------------------------

     CUMULATIVE VOLUMES      L**3       RATES FOR THIS TIME STEP      L**3/T
     ------------------                 ------------------------

           IN:                                      IN:
           ---                                      ---
             STORAGE =   142503120.0000               STORAGE =      838851.0625
       CONSTANT HEAD =           0.0000         CONSTANT HEAD =           0.0000
       RIVER LEAKAGE =   440091552.0000         RIVER LEAKAGE =     4284321.5000
            RECHARGE =      179972.6875              RECHARGE =          74.7183

            TOTAL IN =   582774656.0000              TOTAL IN =     5123247.0000

          OUT:                                     OUT:
          ----                                     ----
             STORAGE =   581254784.0000               STORAGE =     5087023.0000
       CONSTANT HEAD =           0.0000         CONSTANT HEAD =           0.0000
       RIVER LEAKAGE =     1670021.0000         RIVER LEAKAGE =       37457.8438
            RECHARGE =           0.0000              RECHARGE =           0.0000

           TOTAL OUT =   582924800.0000             TOTAL OUT =     5124481.0000

            IN - OUT =     -150144.0000              IN - OUT =       -1234.0000

 PERCENT DISCREPANCY =          -0.03     PERCENT DISCREPANCY =          -0.02






         TIME SUMMARY AT END OF TIME STEP  159 IN STRESS PERIOD    1
                    SECONDS     MINUTES      HOURS       DAYS        YEARS
                    -----------------------------------------------------------
   TIME STEP LENGTH  86400.      1440.0      24.000      1.0000     2.73785E-03
 STRESS PERIOD TIME 1.37376E+07 2.28960E+05  3816.0      159.00     0.43532    
         TOTAL TIME 1.37376E+07 2.28960E+05  3816.0      159.00     0.43532    
1
 
 SOLVING FOR HEAD 
                                                   Max.-Head-Change                        Max.-Flux-Residual
  Residual-Control   Outer-Iter.   Inner-Iter.     Column Row Layer    Max.-Head-Change    Column Row Layer    Max.-Flux-Residual            L2-New               L2-Old           Solver-Max-Delh
          0                 1           2            62   17     1       0.8778106857E+00      62   17    1       0.7992543197E+05      0.3400367531E+06      0.1058988362E+03      0.8778106857E+00
          0                 2           2            50   38     1       0.1356199502E+02      62   17    1      -0.2122724296E+05      0.4012193442E+05      0.3400367531E+06      0.1356199502E+02
          1                 2           0            50   38     1       0.9493396350E+01      50   38    1      -0.1198022149E+07      0.1198024039E+07      0.4012193442E+05      0.1356199502E+02
          2                 2           0            50   38     1       0.6645377332E+01      50   38    1      -0.8360834719E+06      0.8361884837E+06      0.1198024039E+07      0.1356199502E+02
          3                 2           0            50   38     1       0.4651764053E+01      50   38    1      -0.5827264022E+06      0.5831145223E+06      0.8361884837E+06      0.1356199502E+02
          4                 2           0            50   38     1       0.3256234782E+01      50   38    1      -0.4053764565E+06      0.4062675997E+06      0.5831145223E+06      0.1356199502E+02
          5                 2           0            50   38     1       0.2279364308E+01      50   38    1      -0.2812314966E+06      0.2829164795E+06      0.4062675997E+06      0.1356199502E+02
          6                 2           0            50   38     1       0.1595554989E+01      50   38    1      -0.1943300261E+06      0.1972113742E+06      0.2829164795E+06      0.1356199502E+02
          7                 2           0            50   38     1       0.1116888473E+01      50   38    1      -0.1334989978E+06      0.1381431087E+06      0.1972113742E+06      0.1356199502E+02
          8                 2           0            50   38     1       0.7818219179E+00      50   38    1      -0.9091727872E+05      0.9810853311E+05      0.1381431087E+06      0.1356199502E+02
                                                   Max.-Head-Change                        Max.-Flux-Residual
  Residual-Control   Outer-Iter.   Inner-Iter.     Column Row Layer    Max.-Head-Change    Column Row Layer    Max.-Flux-Residual            L2-New               L2-Old           Solver-Max-Delh
          9                 2           0            50   38     1       0.5472753332E+00      50   38    1      -0.6111007588E+05      0.7186380519E+05      0.9810853311E+05      0.1356199502E+02
         10                 2           0            50   38     1       0.3830927267E+00      50   38    1      -0.4024503424E+05      0.5567886714E+05      0.7186380519E+05      0.1356199502E+02
         11                 2           0            50   38     1       0.2681649041E+00      50   38    1      -0.2563950534E+05      0.4662333862E+05      0.5567886714E+05      0.1356199502E+02
          0                 3           2            50   38     1      -0.1646246227E+00      62   17    1      -0.2082849767E+05      0.4218250520E+05      0.4662333862E+05     -0.1646246227E+00
          0                 4           2            63   26     1       0.1295074419E+00      62   17    1      -0.1041216108E+04      0.2224614079E+04      0.4218250520E+05      0.1295074419E+00

    ------------------------------------------------
       NWT REQUIRED            4 OUTER ITERATIONS 
       AND A TOTAL OF          8 INNER ITERATIONS.
    ------------------------------------------------

 OUTPUT CONTROL FOR STRESS PERIOD    1   TIME STEP  160
    SAVE HEAD FOR ALL LAYERS
    SAVE DRAWDOWN FOR ALL LAYERS
    SAVE BUDGET
    PRINT BUDGET
 UBDSV1 SAVING "         STORAGE" ON UNIT   9 AT TIME STEP160, STRESS PERIOD   1
 UBDSV2 SAVING "   CONSTANT HEAD" ON UNIT   9 AT TIME STEP160, STRESS PERIOD   1
 UBDSV1 SAVING "FLOW RIGHT FACE " ON UNIT   9 AT TIME STEP160, STRESS PERIOD   1
 UBDSV1 SAVING "FLOW FRONT FACE " ON UNIT   9 AT TIME STEP160, STRESS PERIOD   1
 UBDSV4 SAVING "   RIVER LEAKAGE" ON UNIT   9 AT TIME STEP160, STRESS PERIOD   1
 UBDSV3 SAVING "        RECHARGE" ON UNIT   9 AT TIME STEP160, STRESS PERIOD   1

 HEAD WILL BE SAVED ON UNIT   37 AT END OF TIME STEP  160, STRESS PERIOD    1

 DRAWDOWN WILL BE SAVED ON UNIT   38 AT END OF TIME STEP  160, STRESS PERIOD    1
1
  VOLUMETRIC BUDGET FOR ENTIRE MODEL AT END OF TIME STEP  160, STRESS PERIOD   1
  ------------------------------------------------------------------------------

     CUMULATIVE VOLUMES      L**3       RATES FOR THIS TIME STEP      L**3/T
     ------------------                 ------------------------

           IN:                                      IN:
           ---                                      ---
             STORAGE =   143342224.0000               STORAGE =      839106.3125
       CONSTANT HEAD =           0.0000         CONSTANT HEAD =           0.0000
       RIVER LEAKAGE =   443412352.0000         RIVER LEAKAGE =     3320784.5000
            RECHARGE =      180040.7344              RECHARGE =          68.0530

            TOTAL IN =   586934592.0000              TOTAL IN =     4159958.7500

          OUT:                                     OUT:
          ----                                     ----
             STORAGE =   585376768.0000               STORAGE =     4122013.5000
       CONSTANT HEAD =           0.0000         CONSTANT HEAD =           0.0000
       RIVER LEAKAGE =     1708727.7500         RIVER LEAKAGE =       38706.8086
            RECHARGE =           0.0000              RECHARGE =           0.0000

           TOTAL OUT =   587085504.0000             TOTAL OUT =     4160720.2500

            IN - OUT =     -150912.0000              IN - OUT =        -761.5000

 PERCENT DISCREPANCY =          -0.03     PERCENT DISCREPANCY =          -0.02






         TIME SUMMARY AT END OF TIME STEP  160 IN STRESS PERIOD    1
                    SECONDS     MINUTES      HOURS       DAYS        YEARS
                    -----------------------------------------------------------
   TIME STEP LENGTH  86400.      1440.0      24.000      1.0000     2.73785E-03
 STRESS PERIOD TIME 1.38240E+07 2.30400E+05  3840.0      160.00     0.43806    
         TOTAL TIME 1.38240E+07 2.30400E+05  3840.0      160.00     0.43806    
1
 
 SOLVING FOR HEAD 
                                                   Max.-Head-Change                        Max.-Flux-Residual
  Residual-Control   Outer-Iter.   Inner-Iter.     Column Row Layer    Max.-Head-Change    Column Row Layer    Max.-Flux-Residual            L2-New               L2-Old           Solver-Max-Delh
          0                 1           2            62   26     1       0.9533289916E+00      62   26    1       0.8679141101E+05      0.4526385589E+06      0.1112146733E+03      0.9533289916E+00
          0                 2           2            53   37     1       0.1685779635E+02      62   26    1      -0.8688244782E+04      0.4580043392E+05      0.4526385589E+06      0.1685779635E+02
          1                 2           0            53   37     1       0.1180045725E+02      53   37    1      -0.9885465755E+06      0.9885494972E+06      0.4580043392E+05      0.1685779635E+02
          2                 2           0            53   37     1       0.8260319932E+01      53   37    1      -0.6904499213E+06      0.6906163337E+06      0.9885494972E+06      0.1685779635E+02
          3                 2           0            53   37     1       0.5782223854E+01      53   37    1      -0.4817822666E+06      0.4823950813E+06      0.6906163337E+06      0.1685779635E+02
          4                 2           0            53   37     1       0.4047556629E+01      53   37    1      -0.3357149106E+06      0.3371174075E+06      0.4823950813E+06      0.1685779635E+02
          5                 2           0            53   37     1       0.2833289592E+01      53   37    1      -0.2334677630E+06      0.2361076419E+06      0.3371174075E+06      0.1685779635E+02
          6                 2           0            53   37     1       0.1983302681E+01      53   37    1      -0.1618947609E+06      0.1663753097E+06      0.2361076419E+06      0.1685779635E+02
          7                 2           0            53   37     1       0.1388311853E+01      53   37    1      -0.1117936602E+06      0.1189212760E+06      0.1663753097E+06      0.1685779635E+02
          8                 2           0            53   37     1       0.9718182804E+00      53   37    1      -0.7672289033E+05      0.8751085439E+05      0.1189212760E+06      0.1685779635E+02
                                                   Max.-Head-Change                        Max.-Flux-Residual
  Residual-Control   Outer-Iter.   Inner-Iter.     Column Row Layer    Max.-Head-Change    Column Row Layer    Max.-Flux-Residual            L2-New               L2-Old           Solver-Max-Delh
          9                 2           0            53   37     1       0.6802727847E+00      53   37    1      -0.5217335183E+05      0.6771811430E+05      0.8751085439E+05      0.1685779635E+02
         10                 2           0            53   37     1       0.4761909412E+00      53   37    1      -0.3498867517E+05      0.5615721086E+05      0.6771811430E+05      0.1685779635E+02
          0                 3           2            53   37     1      -0.3700409561E+00      53   37    1      -0.2295940171E+05      0.5003255035E+05      0.5615721086E+05     -0.3700409561E+00
          0                 4           2            63   26     1       0.1444380587E+00      53   37    1      -0.1147969580E+04      0.2603948253E+04      0.5003255035E+05      0.1444380587E+00

    ------------------------------------------------
       NWT REQUIRED            4 OUTER ITERATIONS 
       AND A TOTAL OF          8 INNER ITERATIONS.
    ------------------------------------------------

 OUTPUT CONTROL FOR STRESS PERIOD    1   TIME STEP  161
    SAVE HEAD FOR ALL LAYERS
    SAVE DRAWDOWN FOR ALL LAYERS
    SAVE BUDGET
    PRINT BUDGET
 UBDSV1 SAVING "         STORAGE" ON UNIT   9 AT TIME STEP161, STRESS PERIOD   1
 UBDSV2 SAVING "   CONSTANT HEAD" ON UNIT   9 AT TIME STEP161, STRESS PERIOD   1
 UBDSV1 SAVING "FLOW RIGHT FACE " ON UNIT   9 AT TIME STEP161, STRESS PERIOD   1
 UBDSV1 SAVING "FLOW FRONT FACE " ON UNIT   9 AT TIME STEP161, STRESS PERIOD   1
 UBDSV4 SAVING "   RIVER LEAKAGE" ON UNIT   9 AT TIME STEP161, STRESS PERIOD   1
 UBDSV3 SAVING "        RECHARGE" ON UNIT   9 AT TIME STEP161, STRESS PERIOD   1

 HEAD WILL BE SAVED ON UNIT   37 AT END OF TIME STEP  161, STRESS PERIOD    1

 DRAWDOWN WILL BE SAVED ON UNIT   38 AT END OF TIME STEP  161, STRESS PERIOD    1
1
  VOLUMETRIC BUDGET FOR ENTIRE MODEL AT END OF TIME STEP  161, STRESS PERIOD   1
  ------------------------------------------------------------------------------

     CUMULATIVE VOLUMES      L**3       RATES FOR THIS TIME STEP      L**3/T
     ------------------                 ------------------------

           IN:                                      IN:
           ---                                      ---
             STORAGE =   144179968.0000               STORAGE =      837736.6250
       CONSTANT HEAD =           0.0000         CONSTANT HEAD =           0.0000
       RIVER LEAKAGE =   447861248.0000         RIVER LEAKAGE =     4448897.5000
            RECHARGE =      180102.7188              RECHARGE =          61.9791

            TOTAL IN =   592221312.0000              TOTAL IN =     5286696.0000

          OUT:                                     OUT:
          ----                                     ----
             STORAGE =   590627328.0000               STORAGE =     5250588.5000
       CONSTANT HEAD =           0.0000         CONSTANT HEAD =           0.0000
       RIVER LEAKAGE =     1746209.5000         RIVER LEAKAGE =       37481.6953
            RECHARGE =           0.0000              RECHARGE =           0.0000

           TOTAL OUT =   592373568.0000             TOTAL OUT =     5288070.0000

            IN - OUT =     -152256.0000              IN - OUT =       -1374.0000

 PERCENT DISCREPANCY =          -0.03     PERCENT DISCREPANCY =          -0.03






         TIME SUMMARY AT END OF TIME STEP  161 IN STRESS PERIOD    1
                    SECONDS     MINUTES      HOURS       DAYS        YEARS
                    -----------------------------------------------------------
   TIME STEP LENGTH  86400.      1440.0      24.000      1.0000     2.73785E-03
 STRESS PERIOD TIME 1.39104E+07 2.31840E+05  3864.0      161.00     0.44079    
         TOTAL TIME 1.39104E+07 2.31840E+05  3864.0      161.00     0.44079    
1
 
 SOLVING FOR HEAD 
                                                   Max.-Head-Change                        Max.-Flux-Residual
  Residual-Control   Outer-Iter.   Inner-Iter.     Column Row Layer    Max.-Head-Change    Column Row Layer    Max.-Flux-Residual            L2-New               L2-Old           Solver-Max-Delh
          0                 1           2            62   26     1       0.9339461961E+00      62   26    1       0.8503417421E+05      0.4102645932E+06      0.1301739492E+03      0.9339461961E+00
          0                 2           2            63   26     1       0.1617524046E+00      62   26    1      -0.8512154516E+04      0.4103365453E+05      0.4102645932E+06      0.1617524046E+00
          0                 3           2            63   26     1       0.1589804319E+00      62   26    1      -0.4256693948E+03      0.2051735974E+04      0.4103365453E+05      0.1589804319E+00

    ------------------------------------------------
       NWT REQUIRED            3 OUTER ITERATIONS 
       AND A TOTAL OF          6 INNER ITERATIONS.
    ------------------------------------------------

 OUTPUT CONTROL FOR STRESS PERIOD    1   TIME STEP  162
    SAVE HEAD FOR ALL LAYERS
    SAVE DRAWDOWN FOR ALL LAYERS
    SAVE BUDGET
    PRINT BUDGET
 UBDSV1 SAVING "         STORAGE" ON UNIT   9 AT TIME STEP162, STRESS PERIOD   1
 UBDSV2 SAVING "   CONSTANT HEAD" ON UNIT   9 AT TIME STEP162, STRESS PERIOD   1
 UBDSV1 SAVING "FLOW RIGHT FACE " ON UNIT   9 AT TIME STEP162, STRESS PERIOD   1
 UBDSV1 SAVING "FLOW FRONT FACE " ON UNIT   9 AT TIME STEP162, STRESS PERIOD   1
 UBDSV4 SAVING "   RIVER LEAKAGE" ON UNIT   9 AT TIME STEP162, STRESS PERIOD   1
 UBDSV3 SAVING "        RECHARGE" ON UNIT   9 AT TIME STEP162, STRESS PERIOD   1

 HEAD WILL BE SAVED ON UNIT   37 AT END OF TIME STEP  162, STRESS PERIOD    1

 DRAWDOWN WILL BE SAVED ON UNIT   38 AT END OF TIME STEP  162, STRESS PERIOD    1
1
  VOLUMETRIC BUDGET FOR ENTIRE MODEL AT END OF TIME STEP  162, STRESS PERIOD   1
  ------------------------------------------------------------------------------

     CUMULATIVE VOLUMES      L**3       RATES FOR THIS TIME STEP      L**3/T
     ------------------                 ------------------------

           IN:                                      IN:
           ---                                      ---
             STORAGE =   145017248.0000               STORAGE =      837282.6250
       CONSTANT HEAD =           0.0000         CONSTANT HEAD =           0.0000
       RIVER LEAKAGE =   452137568.0000         RIVER LEAKAGE =     4276319.0000
            RECHARGE =      180159.1719              RECHARGE =          56.4455

            TOTAL IN =   597334976.0000              TOTAL IN =     5113658.0000

          OUT:                                     OUT:
          ----                                     ----
             STORAGE =   595703744.0000               STORAGE =     5076412.0000
       CONSTANT HEAD =           0.0000         CONSTANT HEAD =           0.0000
       RIVER LEAKAGE =     1784503.7500         RIVER LEAKAGE =       38294.1992
            RECHARGE =           0.0000              RECHARGE =           0.0000

           TOTAL OUT =   597488256.0000             TOTAL OUT =     5114706.0000

            IN - OUT =     -153280.0000              IN - OUT =       -1048.0000

 PERCENT DISCREPANCY =          -0.03     PERCENT DISCREPANCY =          -0.02






         TIME SUMMARY AT END OF TIME STEP  162 IN STRESS PERIOD    1
                    SECONDS     MINUTES      HOURS       DAYS        YEARS
                    -----------------------------------------------------------
   TIME STEP LENGTH  86400.      1440.0      24.000      1.0000     2.73785E-03
 STRESS PERIOD TIME 1.39968E+07 2.33280E+05  3888.0      162.00     0.44353    
         TOTAL TIME 1.39968E+07 2.33280E+05  3888.0      162.00     0.44353    
1
 
 SOLVING FOR HEAD 
                                                   Max.-Head-Change                        Max.-Flux-Residual
  Residual-Control   Outer-Iter.   Inner-Iter.     Column Row Layer    Max.-Head-Change    Column Row Layer    Max.-Flux-Residual            L2-New               L2-Old           Solver-Max-Delh
          0                 1           2            62   26     1       0.9333961347E+00      62   26    1       0.8499131691E+05      0.4078693883E+06      0.1025912308E+03      0.9333961347E+00
          0                 2           2            63   26     1       0.1765573891E+00      62   26    1      -0.8507858352E+04      0.4079416748E+05      0.4078693883E+06      0.1765573891E+00
          0                 3           2            63   26     1       0.1733711507E+00      62   26    1      -0.4254539941E+03      0.2039761883E+04      0.4079416748E+05      0.1733711507E+00

    ------------------------------------------------
       NWT REQUIRED            3 OUTER ITERATIONS 
       AND A TOTAL OF          6 INNER ITERATIONS.
    ------------------------------------------------

 OUTPUT CONTROL FOR STRESS PERIOD    1   TIME STEP  163
    SAVE HEAD FOR ALL LAYERS
    SAVE DRAWDOWN FOR ALL LAYERS
    SAVE BUDGET
    PRINT BUDGET
 UBDSV1 SAVING "         STORAGE" ON UNIT   9 AT TIME STEP163, STRESS PERIOD   1
 UBDSV2 SAVING "   CONSTANT HEAD" ON UNIT   9 AT TIME STEP163, STRESS PERIOD   1
 UBDSV1 SAVING "FLOW RIGHT FACE " ON UNIT   9 AT TIME STEP163, STRESS PERIOD   1
 UBDSV1 SAVING "FLOW FRONT FACE " ON UNIT   9 AT TIME STEP163, STRESS PERIOD   1
 UBDSV4 SAVING "   RIVER LEAKAGE" ON UNIT   9 AT TIME STEP163, STRESS PERIOD   1
 UBDSV3 SAVING "        RECHARGE" ON UNIT   9 AT TIME STEP163, STRESS PERIOD   1

 HEAD WILL BE SAVED ON UNIT   37 AT END OF TIME STEP  163, STRESS PERIOD    1

 DRAWDOWN WILL BE SAVED ON UNIT   38 AT END OF TIME STEP  163, STRESS PERIOD    1
1
  VOLUMETRIC BUDGET FOR ENTIRE MODEL AT END OF TIME STEP  163, STRESS PERIOD   1
  ------------------------------------------------------------------------------

     CUMULATIVE VOLUMES      L**3       RATES FOR THIS TIME STEP      L**3/T
     ------------------                 ------------------------

           IN:                                      IN:
           ---                                      ---
             STORAGE =   145853872.0000               STORAGE =      836626.2500
       CONSTANT HEAD =           0.0000         CONSTANT HEAD =           0.0000
       RIVER LEAKAGE =   456412288.0000         RIVER LEAKAGE =     4274718.5000
            RECHARGE =      180210.5781              RECHARGE =          51.4045

            TOTAL IN =   602446400.0000              TOTAL IN =     5111396.0000

          OUT:                                     OUT:
          ----                                     ----
             STORAGE =   600777792.0000               STORAGE =     5074042.5000
       CONSTANT HEAD =           0.0000         CONSTANT HEAD =           0.0000
       RIVER LEAKAGE =     1822909.0000         RIVER LEAKAGE =       38405.3086
            RECHARGE =           0.0000              RECHARGE =           0.0000

           TOTAL OUT =   602600704.0000             TOTAL OUT =     5112448.0000

            IN - OUT =     -154304.0000              IN - OUT =       -1052.0000

 PERCENT DISCREPANCY =          -0.03     PERCENT DISCREPANCY =          -0.02






         TIME SUMMARY AT END OF TIME STEP  163 IN STRESS PERIOD    1
                    SECONDS     MINUTES      HOURS       DAYS        YEARS
                    -----------------------------------------------------------
   TIME STEP LENGTH  86400.      1440.0      24.000      1.0000     2.73785E-03
 STRESS PERIOD TIME 1.40832E+07 2.34720E+05  3912.0      163.00     0.44627    
         TOTAL TIME 1.40832E+07 2.34720E+05  3912.0      163.00     0.44627    
1
 
 SOLVING FOR HEAD 
                                                   Max.-Head-Change                        Max.-Flux-Residual
  Residual-Control   Outer-Iter.   Inner-Iter.     Column Row Layer    Max.-Head-Change    Column Row Layer    Max.-Flux-Residual            L2-New               L2-Old           Solver-Max-Delh
          0                 1           2            62   26     1       0.9654473808E+00      19  122    1       0.8941365465E+05      0.4780444950E+06      0.1019947905E+03      0.9654473808E+00
          0                 2           2            38   70     1       0.3272211749E+02      19  122    1      -0.8941586667E+04      0.4837589591E+05      0.4780444950E+06      0.3272211749E+02
          1                 2           0            38   70     1       0.2290548185E+02      38   70    1      -0.1012069943E+07      0.1012072765E+07      0.4837589591E+05      0.3272211749E+02
          2                 2           0            38   70     1       0.1603383702E+02      38   70    1      -0.7060824850E+06      0.7062640126E+06      0.1012072765E+07      0.3272211749E+02
          3                 2           0            38   70     1       0.1122368572E+02      38   70    1      -0.4918912584E+06      0.4925542353E+06      0.7062640126E+06      0.3272211749E+02
          4                 2           0            38   70     1       0.7856579873E+01      38   70    1      -0.3419573978E+06      0.3434721624E+06      0.4925542353E+06      0.3272211749E+02
          5                 2           0            38   70     1       0.5499605817E+01      38   70    1      -0.2370036972E+06      0.2398581976E+06      0.3434721624E+06      0.3272211749E+02
          6                 2           0            38   70     1       0.3849724007E+01      38   70    1      -0.1635361080E+06      0.1683962490E+06      0.2398581976E+06      0.3272211749E+02
          7                 2           0            38   70     1       0.2694806759E+01      38   70    1      -0.1121087965E+06      0.1198781670E+06      0.1683962490E+06      0.3272211749E+02
          8                 2           0            38   70     1       0.1886364699E+01      38   70    1      -0.7610967899E+05      0.8794158111E+05      0.1198781670E+06      0.3272211749E+02
                                                   Max.-Head-Change                        Max.-Flux-Residual
  Residual-Control   Outer-Iter.   Inner-Iter.     Column Row Layer    Max.-Head-Change    Column Row Layer    Max.-Flux-Residual            L2-New               L2-Old           Solver-Max-Delh
          9                 2           0            38   70     1       0.1320455267E+01      38   70    1      -0.5091029718E+05      0.6806618292E+05      0.8794158111E+05      0.3272211749E+02
         10                 2           0            38   70     1       0.9243186710E+00      38   70    1      -0.3327073022E+05      0.5674206496E+05      0.6806618292E+05      0.3272211749E+02
          0                 3           2            38   70     1      -0.6376867139E+00      38   70    1      -0.2092303356E+05      0.5100322641E+05      0.5674206496E+05     -0.6376867139E+00
          0                 4           2            63   26     1       0.1882387789E+00      38   70    1      -0.1046151148E+04      0.2549780937E+04      0.5100322641E+05      0.1882387789E+00

    ------------------------------------------------
       NWT REQUIRED            4 OUTER ITERATIONS 
       AND A TOTAL OF          8 INNER ITERATIONS.
    ------------------------------------------------

 OUTPUT CONTROL FOR STRESS PERIOD    1   TIME STEP  164
    SAVE HEAD FOR ALL LAYERS
    SAVE DRAWDOWN FOR ALL LAYERS
    SAVE BUDGET
    PRINT BUDGET
 UBDSV1 SAVING "         STORAGE" ON UNIT   9 AT TIME STEP164, STRESS PERIOD   1
 UBDSV2 SAVING "   CONSTANT HEAD" ON UNIT   9 AT TIME STEP164, STRESS PERIOD   1
 UBDSV1 SAVING "FLOW RIGHT FACE " ON UNIT   9 AT TIME STEP164, STRESS PERIOD   1
 UBDSV1 SAVING "FLOW FRONT FACE " ON UNIT   9 AT TIME STEP164, STRESS PERIOD   1
 UBDSV4 SAVING "   RIVER LEAKAGE" ON UNIT   9 AT TIME STEP164, STRESS PERIOD   1
 UBDSV3 SAVING "        RECHARGE" ON UNIT   9 AT TIME STEP164, STRESS PERIOD   1

 HEAD WILL BE SAVED ON UNIT   37 AT END OF TIME STEP  164, STRESS PERIOD    1

 DRAWDOWN WILL BE SAVED ON UNIT   38 AT END OF TIME STEP  164, STRESS PERIOD    1
1
  VOLUMETRIC BUDGET FOR ENTIRE MODEL AT END OF TIME STEP  164, STRESS PERIOD   1
  ------------------------------------------------------------------------------

     CUMULATIVE VOLUMES      L**3       RATES FOR THIS TIME STEP      L**3/T
     ------------------                 ------------------------

           IN:                                      IN:
           ---                                      ---
             STORAGE =   146689904.0000               STORAGE =      836039.7500
       CONSTANT HEAD =           0.0000         CONSTANT HEAD =           0.0000
       RIVER LEAKAGE =   461386560.0000         RIVER LEAKAGE =     4974273.0000
            RECHARGE =      180257.3906              RECHARGE =          46.8130

            TOTAL IN =   608256704.0000              TOTAL IN =     5810360.0000

          OUT:                                     OUT:
          ----                                     ----
             STORAGE =   606551296.0000               STORAGE =     5773507.5000
       CONSTANT HEAD =           0.0000         CONSTANT HEAD =           0.0000
       RIVER LEAKAGE =     1861087.8750         RIVER LEAKAGE =       38178.8398
            RECHARGE =           0.0000              RECHARGE =           0.0000

           TOTAL OUT =   608412352.0000             TOTAL OUT =     5811686.5000

            IN - OUT =     -155648.0000              IN - OUT =       -1326.5000

 PERCENT DISCREPANCY =          -0.03     PERCENT DISCREPANCY =          -0.02






         TIME SUMMARY AT END OF TIME STEP  164 IN STRESS PERIOD    1
                    SECONDS     MINUTES      HOURS       DAYS        YEARS
                    -----------------------------------------------------------
   TIME STEP LENGTH  86400.      1440.0      24.000      1.0000     2.73785E-03
 STRESS PERIOD TIME 1.41696E+07 2.36160E+05  3936.0      164.00     0.44901    
         TOTAL TIME 1.41696E+07 2.36160E+05  3936.0      164.00     0.44901    
1
 
 SOLVING FOR HEAD 
                                                   Max.-Head-Change                        Max.-Flux-Residual
  Residual-Control   Outer-Iter.   Inner-Iter.     Column Row Layer    Max.-Head-Change    Column Row Layer    Max.-Flux-Residual            L2-New               L2-Old           Solver-Max-Delh
          0                 1           2            62   26     1       0.9598412783E+00      62   26    1       0.8741440846E+05      0.4254382725E+06      0.1274657791E+03      0.9598412783E+00
          0                 2           2            63   26     1       0.2068381645E+00      62   26    1      -0.8750668741E+04      0.4255134601E+05      0.4254382725E+06      0.2068381645E+00
          0                 3           2            63   26     1       0.2027198475E+00      62   26    1      -0.4375970962E+03      0.2127622891E+04      0.4255134601E+05      0.2027198475E+00

    ------------------------------------------------
       NWT REQUIRED            3 OUTER ITERATIONS 
       AND A TOTAL OF          6 INNER ITERATIONS.
    ------------------------------------------------

 OUTPUT CONTROL FOR STRESS PERIOD    1   TIME STEP  165
    SAVE HEAD FOR ALL LAYERS
    SAVE DRAWDOWN FOR ALL LAYERS
    SAVE BUDGET
    PRINT BUDGET
 UBDSV1 SAVING "         STORAGE" ON UNIT   9 AT TIME STEP165, STRESS PERIOD   1
 UBDSV2 SAVING "   CONSTANT HEAD" ON UNIT   9 AT TIME STEP165, STRESS PERIOD   1
 UBDSV1 SAVING "FLOW RIGHT FACE " ON UNIT   9 AT TIME STEP165, STRESS PERIOD   1
 UBDSV1 SAVING "FLOW FRONT FACE " ON UNIT   9 AT TIME STEP165, STRESS PERIOD   1
 UBDSV4 SAVING "   RIVER LEAKAGE" ON UNIT   9 AT TIME STEP165, STRESS PERIOD   1
 UBDSV3 SAVING "        RECHARGE" ON UNIT   9 AT TIME STEP165, STRESS PERIOD   1

 HEAD WILL BE SAVED ON UNIT   37 AT END OF TIME STEP  165, STRESS PERIOD    1

 DRAWDOWN WILL BE SAVED ON UNIT   38 AT END OF TIME STEP  165, STRESS PERIOD    1
1
  VOLUMETRIC BUDGET FOR ENTIRE MODEL AT END OF TIME STEP  165, STRESS PERIOD   1
  ------------------------------------------------------------------------------

     CUMULATIVE VOLUMES      L**3       RATES FOR THIS TIME STEP      L**3/T
     ------------------                 ------------------------

           IN:                                      IN:
           ---                                      ---
             STORAGE =   147525680.0000               STORAGE =      835783.6250
       CONSTANT HEAD =           0.0000         CONSTANT HEAD =           0.0000
       RIVER LEAKAGE =   465801376.0000         RIVER LEAKAGE =     4414816.0000
            RECHARGE =      180300.0156              RECHARGE =          42.6311

            TOTAL IN =   613507328.0000              TOTAL IN =     5250642.0000

          OUT:                                     OUT:
          ----                                     ----
             STORAGE =   611764224.0000               STORAGE =     5212929.0000
       CONSTANT HEAD =           0.0000         CONSTANT HEAD =           0.0000
       RIVER LEAKAGE =     1899830.0000         RIVER LEAKAGE =       38742.1016
            RECHARGE =           0.0000              RECHARGE =           0.0000

           TOTAL OUT =   613664064.0000             TOTAL OUT =     5251671.0000

            IN - OUT =     -156736.0000              IN - OUT =       -1029.0000

 PERCENT DISCREPANCY =          -0.03     PERCENT DISCREPANCY =          -0.02






         TIME SUMMARY AT END OF TIME STEP  165 IN STRESS PERIOD    1
                    SECONDS     MINUTES      HOURS       DAYS        YEARS
                    -----------------------------------------------------------
   TIME STEP LENGTH  86400.      1440.0      24.000      1.0000     2.73785E-03
 STRESS PERIOD TIME 1.42560E+07 2.37600E+05  3960.0      165.00     0.45175    
         TOTAL TIME 1.42560E+07 2.37600E+05  3960.0      165.00     0.45175    
1
 
 SOLVING FOR HEAD 
                                                   Max.-Head-Change                        Max.-Flux-Residual
  Residual-Control   Outer-Iter.   Inner-Iter.     Column Row Layer    Max.-Head-Change    Column Row Layer    Max.-Flux-Residual            L2-New               L2-Old           Solver-Max-Delh
          0                 1           2            62   26     1       0.1115836609E+01      62   26    1       0.1016300514E+06      0.5184261806E+06      0.1063901921E+03      0.1115836609E+01
          0                 2           2            63   26     1       0.2258481737E+00      62   26    1      -0.1017547633E+05      0.5185223691E+05      0.5184261806E+06      0.2258481737E+00
          0                 3           2            63   26     1       0.2211133476E+00      62   26    1      -0.5088609484E+03      0.2592682660E+04      0.5185223691E+05      0.2211133476E+00

    ------------------------------------------------
       NWT REQUIRED            3 OUTER ITERATIONS 
       AND A TOTAL OF          6 INNER ITERATIONS.
    ------------------------------------------------

 OUTPUT CONTROL FOR STRESS PERIOD    1   TIME STEP  166
    SAVE HEAD FOR ALL LAYERS
    SAVE DRAWDOWN FOR ALL LAYERS
    SAVE BUDGET
    PRINT BUDGET
 UBDSV1 SAVING "         STORAGE" ON UNIT   9 AT TIME STEP166, STRESS PERIOD   1
 UBDSV2 SAVING "   CONSTANT HEAD" ON UNIT   9 AT TIME STEP166, STRESS PERIOD   1
 UBDSV1 SAVING "FLOW RIGHT FACE " ON UNIT   9 AT TIME STEP166, STRESS PERIOD   1
 UBDSV1 SAVING "FLOW FRONT FACE " ON UNIT   9 AT TIME STEP166, STRESS PERIOD   1
 UBDSV4 SAVING "   RIVER LEAKAGE" ON UNIT   9 AT TIME STEP166, STRESS PERIOD   1
 UBDSV3 SAVING "        RECHARGE" ON UNIT   9 AT TIME STEP166, STRESS PERIOD   1

 HEAD WILL BE SAVED ON UNIT   37 AT END OF TIME STEP  166, STRESS PERIOD    1

 DRAWDOWN WILL BE SAVED ON UNIT   38 AT END OF TIME STEP  166, STRESS PERIOD    1
1
  VOLUMETRIC BUDGET FOR ENTIRE MODEL AT END OF TIME STEP  166, STRESS PERIOD   1
  ------------------------------------------------------------------------------

     CUMULATIVE VOLUMES      L**3       RATES FOR THIS TIME STEP      L**3/T
     ------------------                 ------------------------

           IN:                                      IN:
           ---                                      ---
             STORAGE =   148360592.0000               STORAGE =      834907.1250
       CONSTANT HEAD =           0.0000         CONSTANT HEAD =           0.0000
       RIVER LEAKAGE =   471107040.0000         RIVER LEAKAGE =     5305660.5000
            RECHARGE =      180338.8438              RECHARGE =          38.8227

            TOTAL IN =   619648000.0000              TOTAL IN =     6140606.5000

          OUT:                                     OUT:
          ----                                     ----
             STORAGE =   617868288.0000               STORAGE =     6104047.0000
       CONSTANT HEAD =           0.0000         CONSTANT HEAD =           0.0000
       RIVER LEAKAGE =     1937855.3750         RIVER LEAKAGE =       38025.4336
            RECHARGE =           0.0000              RECHARGE =           0.0000

           TOTAL OUT =   619806144.0000             TOTAL OUT =     6142072.5000

            IN - OUT =     -158144.0000              IN - OUT =       -1466.0000

 PERCENT DISCREPANCY =          -0.03     PERCENT DISCREPANCY =          -0.02






         TIME SUMMARY AT END OF TIME STEP  166 IN STRESS PERIOD    1
                    SECONDS     MINUTES      HOURS       DAYS        YEARS
                    -----------------------------------------------------------
   TIME STEP LENGTH  86400.      1440.0      24.000      1.0000     2.73785E-03
 STRESS PERIOD TIME 1.43424E+07 2.39040E+05  3984.0      166.00     0.45448    
         TOTAL TIME 1.43424E+07 2.39040E+05  3984.0      166.00     0.45448    
1
 
 SOLVING FOR HEAD 
                                                   Max.-Head-Change                        Max.-Flux-Residual
  Residual-Control   Outer-Iter.   Inner-Iter.     Column Row Layer    Max.-Head-Change    Column Row Layer    Max.-Flux-Residual            L2-New               L2-Old           Solver-Max-Delh
          0                 1           2            62   26     1       0.1295654426E+01      19  122    1       0.1499723656E+06      0.7591706485E+06      0.1296354532E+03      0.1295654426E+01
          0                 2           2            24  117     1       0.7014193369E+02      24  117    1       0.4519167277E+05      0.8757019427E+05      0.7591706485E+06      0.7014193369E+02
          1                 2           0            24  117     1       0.4909935274E+02      24  117    1      -0.4126264785E+08      0.4126264833E+08      0.8757019427E+05      0.7014193369E+02
          2                 2           0            24  117     1       0.3436954634E+02      24  117    1      -0.2886216972E+08      0.2886218077E+08      0.4126264833E+08      0.7014193369E+02
          3                 2           0            24  117     1       0.2405868202E+02      24  117    1      -0.2018183518E+08      0.2018187501E+08      0.2886218077E+08      0.7014193369E+02
          4                 2           0            24  117     1       0.1684107713E+02      24  117    1      -0.1410560110E+08      0.1410569172E+08      0.2018187501E+08      0.7014193369E+02
          5                 2           0            24  117     1       0.1178875379E+02      24  117    1      -0.9852603759E+07      0.9852773838E+07      0.1410569172E+08      0.7014193369E+02
          6                 2           0            24  117     1       0.8252127513E+01      24  117    1      -0.6875538417E+07      0.6875827273E+07      0.9852773838E+07      0.7014193369E+02
          7                 2           0            24  117     1       0.5776489161E+01      24  117    1      -0.4791592720E+07      0.4792055820E+07      0.6875827273E+07      0.7014193369E+02
          8                 2           0            24  117     1       0.4043542344E+01      24  117    1      -0.3332868835E+07      0.3333585831E+07      0.4792055820E+07      0.7014193369E+02
                                                   Max.-Head-Change                        Max.-Flux-Residual
  Residual-Control   Outer-Iter.   Inner-Iter.     Column Row Layer    Max.-Head-Change    Column Row Layer    Max.-Flux-Residual            L2-New               L2-Old           Solver-Max-Delh
          9                 2           0            24  117     1       0.2830479592E+01      24  117    1      -0.2311822032E+07      0.2312908909E+07      0.3333585831E+07      0.7014193369E+02
         10                 2           0            24  117     1       0.1981335681E+01      24  117    1      -0.1597090152E+07      0.1598718188E+07      0.2312908909E+07      0.7014193369E+02
         11                 2           0            24  117     1       0.1386934953E+01      24  117    1      -0.1096796076E+07      0.1099222361E+07      0.1598718188E+07      0.7014193369E+02
         12                 2           0            24  117     1       0.9708544506E+00      24  117    1      -0.7465902294E+06      0.7502091157E+06      0.1099222361E+07      0.7014193369E+02
         13                 2           0            24  117     1       0.6795981038E+00      24  117    1      -0.5014461416E+06      0.5068800853E+06      0.7502091157E+06      0.7014193369E+02
         14                 2           0            24  117     1       0.4757186646E+00      24  117    1      -0.3298452834E+06      0.3381139171E+06      0.5068800853E+06      0.7014193369E+02
         15                 2           0            24  117     1       0.3330030595E+00      24  117    1      -0.2097246848E+06      0.2225722427E+06      0.3381139171E+06      0.7014193369E+02
         16                 2           0            24  117     1       0.2331021377E+00      24  117    1      -0.1256406347E+06      0.1461546236E+06      0.2225722427E+06      0.7014193369E+02
         17                 2           0            24  117     1       0.1631714936E+00      24  117    1      -0.6678433440E+05      0.1002542877E+06      0.1461546236E+06      0.7014193369E+02
          0                 3           2            63   26     1       0.2498070669E+00      24  117    1      -0.2558492491E+05      0.7909484500E+05      0.1002542877E+06      0.2498070669E+00
                                                   Max.-Head-Change                        Max.-Flux-Residual
  Residual-Control   Outer-Iter.   Inner-Iter.     Column Row Layer    Max.-Head-Change    Column Row Layer    Max.-Flux-Residual            L2-New               L2-Old           Solver-Max-Delh
          0                 4           2            63   26     1       0.2442646943E+00      24  117    1      -0.1279246323E+04      0.3954116405E+04      0.7909484500E+05      0.2442646943E+00

    ------------------------------------------------
       NWT REQUIRED            4 OUTER ITERATIONS 
       AND A TOTAL OF          8 INNER ITERATIONS.
    ------------------------------------------------

 OUTPUT CONTROL FOR STRESS PERIOD    1   TIME STEP  167
    SAVE HEAD FOR ALL LAYERS
    SAVE DRAWDOWN FOR ALL LAYERS
    SAVE BUDGET
    PRINT BUDGET
 UBDSV1 SAVING "         STORAGE" ON UNIT   9 AT TIME STEP167, STRESS PERIOD   1
 UBDSV2 SAVING "   CONSTANT HEAD" ON UNIT   9 AT TIME STEP167, STRESS PERIOD   1
 UBDSV1 SAVING "FLOW RIGHT FACE " ON UNIT   9 AT TIME STEP167, STRESS PERIOD   1
 UBDSV1 SAVING "FLOW FRONT FACE " ON UNIT   9 AT TIME STEP167, STRESS PERIOD   1
 UBDSV4 SAVING "   RIVER LEAKAGE" ON UNIT   9 AT TIME STEP167, STRESS PERIOD   1
 UBDSV3 SAVING "        RECHARGE" ON UNIT   9 AT TIME STEP167, STRESS PERIOD   1

 HEAD WILL BE SAVED ON UNIT   37 AT END OF TIME STEP  167, STRESS PERIOD    1

 DRAWDOWN WILL BE SAVED ON UNIT   38 AT END OF TIME STEP  167, STRESS PERIOD    1
1
  VOLUMETRIC BUDGET FOR ENTIRE MODEL AT END OF TIME STEP  167, STRESS PERIOD   1
  ------------------------------------------------------------------------------

     CUMULATIVE VOLUMES      L**3       RATES FOR THIS TIME STEP      L**3/T
     ------------------                 ------------------------

           IN:                                      IN:
           ---                                      ---
             STORAGE =   149194864.0000               STORAGE =      834273.4375
       CONSTANT HEAD =           0.0000         CONSTANT HEAD =           0.0000
       RIVER LEAKAGE =   478495712.0000         RIVER LEAKAGE =     7388686.0000
            RECHARGE =      180374.2031              RECHARGE =          35.3543

            TOTAL IN =   627870976.0000              TOTAL IN =     8222995.0000

          OUT:                                     OUT:
          ----                                     ----
             STORAGE =   626055936.0000               STORAGE =     8187670.0000
       CONSTANT HEAD =           0.0000         CONSTANT HEAD =           0.0000
       RIVER LEAKAGE =     1975415.5000         RIVER LEAKAGE =       37560.1328
            RECHARGE =           0.0000              RECHARGE =           0.0000

           TOTAL OUT =   628031360.0000             TOTAL OUT =     8225230.0000

            IN - OUT =     -160384.0000              IN - OUT =       -2235.0000

 PERCENT DISCREPANCY =          -0.03     PERCENT DISCREPANCY =          -0.03






         TIME SUMMARY AT END OF TIME STEP  167 IN STRESS PERIOD    1
                    SECONDS     MINUTES      HOURS       DAYS        YEARS
                    -----------------------------------------------------------
   TIME STEP LENGTH  86400.      1440.0      24.000      1.0000     2.73785E-03
 STRESS PERIOD TIME 1.44288E+07 2.40480E+05  4008.0      167.00     0.45722    
         TOTAL TIME 1.44288E+07 2.40480E+05  4008.0      167.00     0.45722    
1
 
 SOLVING FOR HEAD 
                                                   Max.-Head-Change                        Max.-Flux-Residual
  Residual-Control   Outer-Iter.   Inner-Iter.     Column Row Layer    Max.-Head-Change    Column Row Layer    Max.-Flux-Residual            L2-New               L2-Old           Solver-Max-Delh
          0                 1           2            62   26     1       0.1299156764E+01      19  122    1       0.1518714493E+06      0.7175399777E+06      0.1976508855E+03      0.1299156764E+01
          0                 2           2            53   38     1       0.5432962598E+00      53   38    1       0.1934902105E+05      0.7448539828E+05      0.7175399777E+06      0.5432962598E+00
          0                 3           2            63   26     1       0.2661995265E+00      53   38    1      -0.1934899959E+04      0.4083939755E+04      0.7448539828E+05      0.2661995265E+00

    ------------------------------------------------
       NWT REQUIRED            3 OUTER ITERATIONS 
       AND A TOTAL OF          6 INNER ITERATIONS.
    ------------------------------------------------

 OUTPUT CONTROL FOR STRESS PERIOD    1   TIME STEP  168
    SAVE HEAD FOR ALL LAYERS
    SAVE DRAWDOWN FOR ALL LAYERS
    SAVE BUDGET
    PRINT BUDGET
 UBDSV1 SAVING "         STORAGE" ON UNIT   9 AT TIME STEP168, STRESS PERIOD   1
 UBDSV2 SAVING "   CONSTANT HEAD" ON UNIT   9 AT TIME STEP168, STRESS PERIOD   1
 UBDSV1 SAVING "FLOW RIGHT FACE " ON UNIT   9 AT TIME STEP168, STRESS PERIOD   1
 UBDSV1 SAVING "FLOW FRONT FACE " ON UNIT   9 AT TIME STEP168, STRESS PERIOD   1
 UBDSV4 SAVING "   RIVER LEAKAGE" ON UNIT   9 AT TIME STEP168, STRESS PERIOD   1
 UBDSV3 SAVING "        RECHARGE" ON UNIT   9 AT TIME STEP168, STRESS PERIOD   1

 HEAD WILL BE SAVED ON UNIT   37 AT END OF TIME STEP  168, STRESS PERIOD    1

 DRAWDOWN WILL BE SAVED ON UNIT   38 AT END OF TIME STEP  168, STRESS PERIOD    1
1
  VOLUMETRIC BUDGET FOR ENTIRE MODEL AT END OF TIME STEP  168, STRESS PERIOD   1
  ------------------------------------------------------------------------------

     CUMULATIVE VOLUMES      L**3       RATES FOR THIS TIME STEP      L**3/T
     ------------------                 ------------------------

           IN:                                      IN:
           ---                                      ---
             STORAGE =   150028512.0000               STORAGE =      833654.8750
       CONSTANT HEAD =           0.0000         CONSTANT HEAD =           0.0000
       RIVER LEAKAGE =   485847040.0000         RIVER LEAKAGE =     7351344.0000
            RECHARGE =      180406.4062              RECHARGE =          32.1957

            TOTAL IN =   636055936.0000              TOTAL IN =     8185031.0000

          OUT:                                     OUT:
          ----                                     ----
             STORAGE =   634201408.0000               STORAGE =     8145452.5000
       CONSTANT HEAD =           0.0000         CONSTANT HEAD =           0.0000
       RIVER LEAKAGE =     2016947.0000         RIVER LEAKAGE =       41531.5039
            RECHARGE =           0.0000              RECHARGE =           0.0000

           TOTAL OUT =   636218368.0000             TOTAL OUT =     8186984.0000

            IN - OUT =     -162432.0000              IN - OUT =       -1953.0000

 PERCENT DISCREPANCY =          -0.03     PERCENT DISCREPANCY =          -0.02






         TIME SUMMARY AT END OF TIME STEP  168 IN STRESS PERIOD    1
                    SECONDS     MINUTES      HOURS       DAYS        YEARS
                    -----------------------------------------------------------
   TIME STEP LENGTH  86400.      1440.0      24.000      1.0000     2.73785E-03
 STRESS PERIOD TIME 1.45152E+07 2.41920E+05  4032.0      168.00     0.45996    
         TOTAL TIME 1.45152E+07 2.41920E+05  4032.0      168.00     0.45996    
1
 
 SOLVING FOR HEAD 
                                                   Max.-Head-Change                        Max.-Flux-Residual
  Residual-Control   Outer-Iter.   Inner-Iter.     Column Row Layer    Max.-Head-Change    Column Row Layer    Max.-Flux-Residual            L2-New               L2-Old           Solver-Max-Delh
          0                 1           2            59   33     1       0.8099613729E+00      19  122    1       0.1149341254E+06      0.5976680942E+06      0.2041866296E+03      0.8099613729E+00
          0                 2           2            63   26     1       0.2669260252E+00      19  122    1      -0.1149377889E+05      0.5977525652E+05      0.5976680942E+06      0.2669260252E+00
          0                 3           2            63   26     1       0.2606663750E+00      19  122    1      -0.5746913849E+03      0.2988824628E+04      0.5977525652E+05      0.2606663750E+00

    ------------------------------------------------
       NWT REQUIRED            3 OUTER ITERATIONS 
       AND A TOTAL OF          6 INNER ITERATIONS.
    ------------------------------------------------

 OUTPUT CONTROL FOR STRESS PERIOD    1   TIME STEP  169
    SAVE HEAD FOR ALL LAYERS
    SAVE DRAWDOWN FOR ALL LAYERS
    SAVE BUDGET
    PRINT BUDGET
 UBDSV1 SAVING "         STORAGE" ON UNIT   9 AT TIME STEP169, STRESS PERIOD   1
 UBDSV2 SAVING "   CONSTANT HEAD" ON UNIT   9 AT TIME STEP169, STRESS PERIOD   1
 UBDSV1 SAVING "FLOW RIGHT FACE " ON UNIT   9 AT TIME STEP169, STRESS PERIOD   1
 UBDSV1 SAVING "FLOW FRONT FACE " ON UNIT   9 AT TIME STEP169, STRESS PERIOD   1
 UBDSV4 SAVING "   RIVER LEAKAGE" ON UNIT   9 AT TIME STEP169, STRESS PERIOD   1
 UBDSV3 SAVING "        RECHARGE" ON UNIT   9 AT TIME STEP169, STRESS PERIOD   1

 HEAD WILL BE SAVED ON UNIT   37 AT END OF TIME STEP  169, STRESS PERIOD    1

 DRAWDOWN WILL BE SAVED ON UNIT   38 AT END OF TIME STEP  169, STRESS PERIOD    1
1
  VOLUMETRIC BUDGET FOR ENTIRE MODEL AT END OF TIME STEP  169, STRESS PERIOD   1
  ------------------------------------------------------------------------------

     CUMULATIVE VOLUMES      L**3       RATES FOR THIS TIME STEP      L**3/T
     ------------------                 ------------------------

           IN:                                      IN:
           ---                                      ---
             STORAGE =   150862928.0000               STORAGE =      834422.6875
       CONSTANT HEAD =           0.0000         CONSTANT HEAD =           0.0000
       RIVER LEAKAGE =   491707424.0000         RIVER LEAKAGE =     5860395.5000
            RECHARGE =      180435.7188              RECHARGE =          29.3193

            TOTAL IN =   642750784.0000              TOTAL IN =     6694847.5000

          OUT:                                     OUT:
          ----                                     ----
             STORAGE =   640854656.0000               STORAGE =     6653229.0000
       CONSTANT HEAD =           0.0000         CONSTANT HEAD =           0.0000
       RIVER LEAKAGE =     2059788.0000         RIVER LEAKAGE =       42841.0156
            RECHARGE =           0.0000              RECHARGE =           0.0000

           TOTAL OUT =   642914432.0000             TOTAL OUT =     6696070.0000

            IN - OUT =     -163648.0000              IN - OUT =       -1222.5000

 PERCENT DISCREPANCY =          -0.03     PERCENT DISCREPANCY =          -0.02






         TIME SUMMARY AT END OF TIME STEP  169 IN STRESS PERIOD    1
                    SECONDS     MINUTES      HOURS       DAYS        YEARS
                    -----------------------------------------------------------
   TIME STEP LENGTH  86400.      1440.0      24.000      1.0000     2.73785E-03
 STRESS PERIOD TIME 1.46016E+07 2.43360E+05  4056.0      169.00     0.46270    
         TOTAL TIME 1.46016E+07 2.43360E+05  4056.0      169.00     0.46270    
1
 
 SOLVING FOR HEAD 
                                                   Max.-Head-Change                        Max.-Flux-Residual
  Residual-Control   Outer-Iter.   Inner-Iter.     Column Row Layer    Max.-Head-Change    Column Row Layer    Max.-Flux-Residual            L2-New               L2-Old           Solver-Max-Delh
          0                 1           2            59   33     1       0.9124286886E+00      19  122    1       0.1412273247E+06      0.6732267910E+06      0.1494403003E+03      0.9124286886E+00
          0                 2           2            31  112     1       0.1201613641E+03      31  112    1       0.2963736178E+05      0.7395542748E+05      0.6732267910E+06      0.1201613641E+03
          1                 2           0            31  112     1       0.8411295344E+02      31  112    1      -0.5355236638E+08      0.5356347771E+08      0.7395542748E+05      0.1201613641E+03
          2                 2           0            31  112     1       0.5887906640E+02      31  112    1      -0.3746932342E+08      0.3747694880E+08      0.5356347771E+08      0.1201613641E+03
          3                 2           0            31  112     1       0.4121534578E+02      31  112    1      -0.2621119355E+08      0.2621639382E+08      0.3747694880E+08      0.1201613641E+03
          4                 2           0            31  112     1       0.2885074156E+02      31  112    1      -0.1833076311E+08      0.1833428734E+08      0.2621639382E+08      0.1201613641E+03
          5                 2           0            31  112     1       0.2019551874E+02      31  112    1      -0.1281457704E+08      0.1281695891E+08      0.1833428734E+08      0.1201613641E+03
          6                 2           0            31  112     1       0.1413686288E+02      31  112    1      -0.8953246876E+07      0.8954873431E+07      0.1281695891E+08      0.1201613641E+03
          7                 2           0            31  112     1       0.9895803848E+01      31  112    1      -0.6250315819E+07      0.6251477362E+07      0.8954873431E+07      0.1201613641E+03
          8                 2           0            31  112     1       0.6927062576E+01      31  112    1      -0.4358335418E+07      0.4359263189E+07      0.6251477362E+07      0.1201613641E+03
                                                   Max.-Head-Change                        Max.-Flux-Residual
  Residual-Control   Outer-Iter.   Inner-Iter.     Column Row Layer    Max.-Head-Change    Column Row Layer    Max.-Flux-Residual            L2-New               L2-Old           Solver-Max-Delh
          9                 2           0            31  112     1       0.4848943720E+01      31  112    1      -0.3033958219E+07      0.3034855014E+07      0.4359263189E+07      0.1201613641E+03
         10                 2           0            31  112     1       0.3394260546E+01      31  112    1      -0.2106894198E+07      0.2107962107E+07      0.3034855014E+07      0.1201613641E+03
         11                 2           0            31  112     1       0.2375982342E+01      31  112    1      -0.1457949395E+07      0.1459419286E+07      0.2107962107E+07      0.1201613641E+03
         12                 2           0            31  112     1       0.1663187611E+01      31  112    1      -0.1003688041E+07      0.1005856589E+07      0.1459419286E+07      0.1201613641E+03
         13                 2           0            31  112     1       0.1164231308E+01      31  112    1      -0.6857050985E+06      0.6889568124E+06      0.1005856589E+07      0.1201613641E+03
         14                 2           0            31  112     1       0.8149619017E+00      31  112    1      -0.4631170430E+06      0.4679567717E+06      0.6889568124E+06      0.1201613641E+03
         15                 2           0            31  112     1       0.5704733215E+00      31  112    1      -0.3073054068E+06      0.3145920225E+06      0.4679567717E+06      0.1201613641E+03
         16                 2           0            31  112     1       0.3993313182E+00      31  112    1      -0.1982372633E+06      0.2093975900E+06      0.3145920225E+06      0.1201613641E+03
         17                 2           0            31  112     1       0.2795319180E+00      31  112    1      -0.1218895642E+06      0.1393516852E+06      0.2093975900E+06      0.1201613641E+03
         18                 2           0            31  112     1       0.1956723393E+00      31  112    1      -0.6844617579E+05      0.9620528676E+05      0.1393516852E+06      0.1201613641E+03
                                                   Max.-Head-Change                        Max.-Flux-Residual
  Residual-Control   Outer-Iter.   Inner-Iter.     Column Row Layer    Max.-Head-Change    Column Row Layer    Max.-Flux-Residual            L2-New               L2-Old           Solver-Max-Delh
          0                 3           2             3  130     1       0.5353411892E+01      31  112    1      -0.3103580451E+05      0.7443071092E+05      0.9620528676E+05      0.5353411892E+01
          1                 3           0             3  130     1       0.3747388260E+01       3  130    1      -0.1090770518E+07      0.1090777258E+07      0.7443071092E+05      0.5353411892E+01
          2                 3           0             3  130     1       0.2623171738E+01       3  130    1      -0.7560618694E+06      0.7564596880E+06      0.1090777258E+07      0.5353411892E+01
          3                 3           0             3  130     1       0.1836220185E+01       3  130    1      -0.5217658096E+06      0.5232447144E+06      0.7564596880E+06      0.5353411892E+01
          4                 3           0             3  130     1       0.1285354108E+01       3  130    1      -0.3577585659E+06      0.3611902494E+06      0.5232447144E+06      0.5353411892E+01
          5                 3           0             3  130     1       0.8997478600E+00       3  130    1      -0.2429534949E+06      0.2495330808E+06      0.3611902494E+06      0.5353411892E+01
          6                 3           0             3  130     1       0.6298234913E+00       3  130    1      -0.1625899454E+06      0.1740107625E+06      0.2495330808E+06      0.5353411892E+01
          7                 3           0             3  130     1       0.4408764364E+00       3  130    1      -0.1063354612E+06      0.1249197015E+06      0.1740107625E+06      0.5353411892E+01
          8                 3           0             3  130     1       0.3086135002E+00       3  130    1      -0.6695732269E+05      0.9546438602E+05      0.1249197015E+06      0.5353411892E+01
          0                 4           2            62   22     1       0.2340041675E+00       3  130    1      -0.3939262604E+05      0.8013766581E+05      0.9546438602E+05      0.2340041675E+00
                                                   Max.-Head-Change                        Max.-Flux-Residual
  Residual-Control   Outer-Iter.   Inner-Iter.     Column Row Layer    Max.-Head-Change    Column Row Layer    Max.-Flux-Residual            L2-New               L2-Old           Solver-Max-Delh
          0                 5           2            28   66     1       0.8244022835E-01       3  130    1      -0.1969635076E+04      0.4134214941E+04      0.8013766581E+05      0.8244022835E-01

    ------------------------------------------------
       NWT REQUIRED            5 OUTER ITERATIONS 
       AND A TOTAL OF         10 INNER ITERATIONS.
    ------------------------------------------------

 OUTPUT CONTROL FOR STRESS PERIOD    1   TIME STEP  170
    SAVE HEAD FOR ALL LAYERS
    SAVE DRAWDOWN FOR ALL LAYERS
    SAVE BUDGET
    PRINT BUDGET
 UBDSV1 SAVING "         STORAGE" ON UNIT   9 AT TIME STEP170, STRESS PERIOD   1
 UBDSV2 SAVING "   CONSTANT HEAD" ON UNIT   9 AT TIME STEP170, STRESS PERIOD   1
 UBDSV1 SAVING "FLOW RIGHT FACE " ON UNIT   9 AT TIME STEP170, STRESS PERIOD   1
 UBDSV1 SAVING "FLOW FRONT FACE " ON UNIT   9 AT TIME STEP170, STRESS PERIOD   1
 UBDSV4 SAVING "   RIVER LEAKAGE" ON UNIT   9 AT TIME STEP170, STRESS PERIOD   1
 UBDSV3 SAVING "        RECHARGE" ON UNIT   9 AT TIME STEP170, STRESS PERIOD   1

 HEAD WILL BE SAVED ON UNIT   37 AT END OF TIME STEP  170, STRESS PERIOD    1

 DRAWDOWN WILL BE SAVED ON UNIT   38 AT END OF TIME STEP  170, STRESS PERIOD    1
1
  VOLUMETRIC BUDGET FOR ENTIRE MODEL AT END OF TIME STEP  170, STRESS PERIOD   1
  ------------------------------------------------------------------------------

     CUMULATIVE VOLUMES      L**3       RATES FOR THIS TIME STEP      L**3/T
     ------------------                 ------------------------

           IN:                                      IN:
           ---                                      ---
             STORAGE =   151695376.0000               STORAGE =      832443.7500
       CONSTANT HEAD =           0.0000         CONSTANT HEAD =           0.0000
       RIVER LEAKAGE =   498484352.0000         RIVER LEAKAGE =     6776914.5000
            RECHARGE =      180462.4219              RECHARGE =          26.6997

            TOTAL IN =   650360192.0000              TOTAL IN =     7609385.0000

          OUT:                                     OUT:
          ----                                     ----
             STORAGE =   648424704.0000               STORAGE =     7570071.5000
       CONSTANT HEAD =           0.0000         CONSTANT HEAD =           0.0000
       RIVER LEAKAGE =     2101049.2500         RIVER LEAKAGE =       41261.3203
            RECHARGE =           0.0000              RECHARGE =           0.0000

           TOTAL OUT =   650525760.0000             TOTAL OUT =     7611333.0000

            IN - OUT =     -165568.0000              IN - OUT =       -1948.0000

 PERCENT DISCREPANCY =          -0.03     PERCENT DISCREPANCY =          -0.03






         TIME SUMMARY AT END OF TIME STEP  170 IN STRESS PERIOD    1
                    SECONDS     MINUTES      HOURS       DAYS        YEARS
                    -----------------------------------------------------------
   TIME STEP LENGTH  86400.      1440.0      24.000      1.0000     2.73785E-03
 STRESS PERIOD TIME 1.46880E+07 2.44800E+05  4080.0      170.00     0.46543    
         TOTAL TIME 1.46880E+07 2.44800E+05  4080.0      170.00     0.46543    
1
 
 SOLVING FOR HEAD 
                                                   Max.-Head-Change                        Max.-Flux-Residual
  Residual-Control   Outer-Iter.   Inner-Iter.     Column Row Layer    Max.-Head-Change    Column Row Layer    Max.-Flux-Residual            L2-New               L2-Old           Solver-Max-Delh
          0                 1           2            59   33     1       0.8594385033E+00      19  122    1       0.1276116211E+06      0.6079036831E+06      0.2066324137E+03      0.8594385033E+00
          0                 2           2            62   23     1       0.3069039231E+00      62   23    1       0.1536618049E+05      0.6241989561E+05      0.6079036831E+06      0.3069039231E+00
          0                 3           2            28   66     1       0.8231547170E-01      62   23    1      -0.1536615672E+04      0.3392913720E+04      0.6241989561E+05      0.8231547170E-01

    ------------------------------------------------
       NWT REQUIRED            3 OUTER ITERATIONS 
       AND A TOTAL OF          6 INNER ITERATIONS.
    ------------------------------------------------

 OUTPUT CONTROL FOR STRESS PERIOD    1   TIME STEP  171
    SAVE HEAD FOR ALL LAYERS
    SAVE DRAWDOWN FOR ALL LAYERS
    SAVE BUDGET
    PRINT BUDGET
 UBDSV1 SAVING "         STORAGE" ON UNIT   9 AT TIME STEP171, STRESS PERIOD   1
 UBDSV2 SAVING "   CONSTANT HEAD" ON UNIT   9 AT TIME STEP171, STRESS PERIOD   1
 UBDSV1 SAVING "FLOW RIGHT FACE " ON UNIT   9 AT TIME STEP171, STRESS PERIOD   1
 UBDSV1 SAVING "FLOW FRONT FACE " ON UNIT   9 AT TIME STEP171, STRESS PERIOD   1
 UBDSV4 SAVING "   RIVER LEAKAGE" ON UNIT   9 AT TIME STEP171, STRESS PERIOD   1
 UBDSV3 SAVING "        RECHARGE" ON UNIT   9 AT TIME STEP171, STRESS PERIOD   1

 HEAD WILL BE SAVED ON UNIT   37 AT END OF TIME STEP  171, STRESS PERIOD    1

 DRAWDOWN WILL BE SAVED ON UNIT   38 AT END OF TIME STEP  171, STRESS PERIOD    1
1
  VOLUMETRIC BUDGET FOR ENTIRE MODEL AT END OF TIME STEP  171, STRESS PERIOD   1
  ------------------------------------------------------------------------------

     CUMULATIVE VOLUMES      L**3       RATES FOR THIS TIME STEP      L**3/T
     ------------------                 ------------------------

           IN:                                      IN:
           ---                                      ---
             STORAGE =   152527744.0000               STORAGE =      832365.0000
       CONSTANT HEAD =           0.0000         CONSTANT HEAD =           0.0000
       RIVER LEAKAGE =   504578464.0000         RIVER LEAKAGE =     6094118.0000
            RECHARGE =      180486.7344              RECHARGE =          24.3142

            TOTAL IN =   657286656.0000              TOTAL IN =     6926507.5000

          OUT:                                     OUT:
          ----                                     ----
             STORAGE =   655306560.0000               STORAGE =     6881858.0000
       CONSTANT HEAD =           0.0000         CONSTANT HEAD =           0.0000
       RIVER LEAKAGE =     2147220.0000         RIVER LEAKAGE =       46170.6914
            RECHARGE =           0.0000              RECHARGE =           0.0000

           TOTAL OUT =   657453760.0000             TOTAL OUT =     6928028.5000

            IN - OUT =     -167104.0000              IN - OUT =       -1521.0000

 PERCENT DISCREPANCY =          -0.03     PERCENT DISCREPANCY =          -0.02






         TIME SUMMARY AT END OF TIME STEP  171 IN STRESS PERIOD    1
                    SECONDS     MINUTES      HOURS       DAYS        YEARS
                    -----------------------------------------------------------
   TIME STEP LENGTH  86400.      1440.0      24.000      1.0000     2.73785E-03
 STRESS PERIOD TIME 1.47744E+07 2.46240E+05  4104.0      171.00     0.46817    
         TOTAL TIME 1.47744E+07 2.46240E+05  4104.0      171.00     0.46817    
1
 
 SOLVING FOR HEAD 
                                                   Max.-Head-Change                        Max.-Flux-Residual
  Residual-Control   Outer-Iter.   Inner-Iter.     Column Row Layer    Max.-Head-Change    Column Row Layer    Max.-Flux-Residual            L2-New               L2-Old           Solver-Max-Delh
          0                 1           2            59   33     1       0.7727096559E+00      33   90    1       0.3700477471E+06      0.1559995475E+07      0.1696290991E+03      0.7727096559E+00
          0                 2           2            30  111     1       0.1863009263E+00      30  111    1       0.1116919194E+06      0.1899094834E+06      0.1559995475E+07      0.1863009263E+00
          0                 3           2            28   66     1       0.8218457721E-01      30  111    1      -0.1116897006E+05      0.1355440750E+05      0.1899094834E+06      0.8218457721E-01
          0                 4           2            28   66     1       0.8196893624E-01      30  111    1      -0.5584482527E+03      0.6776792350E+03      0.1355440750E+05      0.8196893624E-01

    ------------------------------------------------
       NWT REQUIRED            4 OUTER ITERATIONS 
       AND A TOTAL OF          8 INNER ITERATIONS.
    ------------------------------------------------

 OUTPUT CONTROL FOR STRESS PERIOD    1   TIME STEP  172
    SAVE HEAD FOR ALL LAYERS
    SAVE DRAWDOWN FOR ALL LAYERS
    SAVE BUDGET
    PRINT BUDGET
 UBDSV1 SAVING "         STORAGE" ON UNIT   9 AT TIME STEP172, STRESS PERIOD   1
 UBDSV2 SAVING "   CONSTANT HEAD" ON UNIT   9 AT TIME STEP172, STRESS PERIOD   1
 UBDSV1 SAVING "FLOW RIGHT FACE " ON UNIT   9 AT TIME STEP172, STRESS PERIOD   1
 UBDSV1 SAVING "FLOW FRONT FACE " ON UNIT   9 AT TIME STEP172, STRESS PERIOD   1
 UBDSV4 SAVING "   RIVER LEAKAGE" ON UNIT   9 AT TIME STEP172, STRESS PERIOD   1
 UBDSV3 SAVING "        RECHARGE" ON UNIT   9 AT TIME STEP172, STRESS PERIOD   1

 HEAD WILL BE SAVED ON UNIT   37 AT END OF TIME STEP  172, STRESS PERIOD    1

 DRAWDOWN WILL BE SAVED ON UNIT   38 AT END OF TIME STEP  172, STRESS PERIOD    1
1
  VOLUMETRIC BUDGET FOR ENTIRE MODEL AT END OF TIME STEP  172, STRESS PERIOD   1
  ------------------------------------------------------------------------------

     CUMULATIVE VOLUMES      L**3       RATES FOR THIS TIME STEP      L**3/T
     ------------------                 ------------------------

           IN:                                      IN:
           ---                                      ---
             STORAGE =   153359376.0000               STORAGE =      831639.6250
       CONSTANT HEAD =           0.0000         CONSTANT HEAD =           0.0000
       RIVER LEAKAGE =   517928576.0000         RIVER LEAKAGE =    13350120.0000
            RECHARGE =      180508.8750              RECHARGE =          22.1419

            TOTAL IN =   671468480.0000              TOTAL IN =    14181782.0000

          OUT:                                     OUT:
          ----                                     ----
             STORAGE =   669442880.0000               STORAGE =    14136291.0000
       CONSTANT HEAD =           0.0000         CONSTANT HEAD =           0.0000
       RIVER LEAKAGE =     2192905.7500         RIVER LEAKAGE =       45685.6523
            RECHARGE =           0.0000              RECHARGE =           0.0000

           TOTAL OUT =   671635776.0000             TOTAL OUT =    14181977.0000

            IN - OUT =     -167296.0000              IN - OUT =        -195.0000

 PERCENT DISCREPANCY =          -0.02     PERCENT DISCREPANCY =          -0.00






         TIME SUMMARY AT END OF TIME STEP  172 IN STRESS PERIOD    1
                    SECONDS     MINUTES      HOURS       DAYS        YEARS
                    -----------------------------------------------------------
   TIME STEP LENGTH  86400.      1440.0      24.000      1.0000     2.73785E-03
 STRESS PERIOD TIME 1.48608E+07 2.47680E+05  4128.0      172.00     0.47091    
         TOTAL TIME 1.48608E+07 2.47680E+05  4128.0      172.00     0.47091    
1
 
 SOLVING FOR HEAD 
                                                   Max.-Head-Change                        Max.-Flux-Residual
  Residual-Control   Outer-Iter.   Inner-Iter.     Column Row Layer    Max.-Head-Change    Column Row Layer    Max.-Flux-Residual            L2-New               L2-Old           Solver-Max-Delh
          0                 1           2            59   33     1       0.8176601640E+00      26  115    1      -0.2138139751E+06      0.9095828837E+06      0.3392714119E+02      0.8176601640E+00
          0                 2           2            28   66     1       0.8204943771E-01      26  115    1       0.2138150990E+05      0.9096367004E+05      0.9095828837E+06      0.8204943771E-01
          0                 3           2            28   66     1       0.8183301149E-01      26  115    1       0.1069075789E+04      0.4548225772E+04      0.9096367004E+05      0.8183301149E-01

    ------------------------------------------------
       NWT REQUIRED            3 OUTER ITERATIONS 
       AND A TOTAL OF          6 INNER ITERATIONS.
    ------------------------------------------------

 OUTPUT CONTROL FOR STRESS PERIOD    1   TIME STEP  173
    SAVE HEAD FOR ALL LAYERS
    SAVE DRAWDOWN FOR ALL LAYERS
    SAVE BUDGET
    PRINT BUDGET
 UBDSV1 SAVING "         STORAGE" ON UNIT   9 AT TIME STEP173, STRESS PERIOD   1
 UBDSV2 SAVING "   CONSTANT HEAD" ON UNIT   9 AT TIME STEP173, STRESS PERIOD   1
 UBDSV1 SAVING "FLOW RIGHT FACE " ON UNIT   9 AT TIME STEP173, STRESS PERIOD   1
 UBDSV1 SAVING "FLOW FRONT FACE " ON UNIT   9 AT TIME STEP173, STRESS PERIOD   1
 UBDSV4 SAVING "   RIVER LEAKAGE" ON UNIT   9 AT TIME STEP173, STRESS PERIOD   1
 UBDSV3 SAVING "        RECHARGE" ON UNIT   9 AT TIME STEP173, STRESS PERIOD   1

 HEAD WILL BE SAVED ON UNIT   37 AT END OF TIME STEP  173, STRESS PERIOD    1

 DRAWDOWN WILL BE SAVED ON UNIT   38 AT END OF TIME STEP  173, STRESS PERIOD    1
1
  VOLUMETRIC BUDGET FOR ENTIRE MODEL AT END OF TIME STEP  173, STRESS PERIOD   1
  ------------------------------------------------------------------------------

     CUMULATIVE VOLUMES      L**3       RATES FOR THIS TIME STEP      L**3/T
     ------------------                 ------------------------

           IN:                                      IN:
           ---                                      ---
             STORAGE =   154190192.0000               STORAGE =      830822.5000
       CONSTANT HEAD =           0.0000         CONSTANT HEAD =           0.0000
       RIVER LEAKAGE =   525850752.0000         RIVER LEAKAGE =     7922186.0000
            RECHARGE =      180529.0312              RECHARGE =          20.1639

            TOTAL IN =   680221504.0000              TOTAL IN =     8753028.0000

          OUT:                                     OUT:
          ----                                     ----
             STORAGE =   678151744.0000               STORAGE =     8708867.0000
       CONSTANT HEAD =           0.0000         CONSTANT HEAD =           0.0000
       RIVER LEAKAGE =     2239095.0000         RIVER LEAKAGE =       46189.1914
            RECHARGE =           0.0000              RECHARGE =           0.0000

           TOTAL OUT =   680390848.0000             TOTAL OUT =     8755056.0000

            IN - OUT =     -169344.0000              IN - OUT =       -2028.0000

 PERCENT DISCREPANCY =          -0.02     PERCENT DISCREPANCY =          -0.02






         TIME SUMMARY AT END OF TIME STEP  173 IN STRESS PERIOD    1
                    SECONDS     MINUTES      HOURS       DAYS        YEARS
                    -----------------------------------------------------------
   TIME STEP LENGTH  86400.      1440.0      24.000      1.0000     2.73785E-03
 STRESS PERIOD TIME 1.49472E+07 2.49120E+05  4152.0      173.00     0.47365    
         TOTAL TIME 1.49472E+07 2.49120E+05  4152.0      173.00     0.47365    
1
 
 SOLVING FOR HEAD 
                                                   Max.-Head-Change                        Max.-Flux-Residual
  Residual-Control   Outer-Iter.   Inner-Iter.     Column Row Layer    Max.-Head-Change    Column Row Layer    Max.-Flux-Residual            L2-New               L2-Old           Solver-Max-Delh
          0                 1           2            59   33     1       0.8169813442E+00      36   74    1      -0.1275028809E+06      0.6420000333E+06      0.2273736447E+03      0.8169813442E+00
          0                 2           2            62   18     1      -0.8049250913E+01      58   35    1       0.1997476692E+05      0.6694935337E+05      0.6420000333E+06     -0.8049250913E+01
          1                 2           0            62   18     1      -0.5634475543E+01      62   18    1       0.8000180871E+06      0.8000276002E+06      0.6694935337E+05     -0.8049250913E+01
          2                 2           0            62   18     1      -0.3944132813E+01      62   18    1       0.5584518829E+06      0.5588734198E+06      0.8000276002E+06     -0.8049250913E+01
          3                 2           0            62   18     1      -0.2760892922E+01      62   18    1       0.3892860816E+06      0.3908764417E+06      0.5588734198E+06     -0.8049250913E+01
          4                 2           0            62   18     1      -0.1932625013E+01      62   18    1       0.2708359868E+06      0.2745041682E+06      0.3908764417E+06     -0.8049250913E+01
          5                 2           0            62   18     1      -0.1352837486E+01      62   18    1       0.1879042442E+06      0.1948034728E+06      0.2745041682E+06     -0.8049250913E+01
          6                 2           0            62   18     1      -0.9469862239E+00      62   18    1       0.1298438534E+06      0.1414242777E+06      0.1948034728E+06     -0.8049250913E+01
          7                 2           0            62   18     1      -0.6628903454E+00      62   18    1       0.8919757618E+05      0.1071181514E+06      0.1414242777E+06     -0.8049250913E+01
          8                 2           0            62   18     1      -0.4640232339E+00      62   18    1       0.6074322052E+05      0.8651152760E+05      0.1071181514E+06     -0.8049250913E+01
                                                   Max.-Head-Change                        Max.-Flux-Residual
  Residual-Control   Outer-Iter.   Inner-Iter.     Column Row Layer    Max.-Head-Change    Column Row Layer    Max.-Flux-Residual            L2-New               L2-Old           Solver-Max-Delh
          9                 2           0            62   18     1      -0.3248162582E+00      62   18    1       0.4082421046E+05      0.7523862327E+05      0.8651152760E+05     -0.8049250913E+01
          0                 3           2            58   35     1       0.3161150538E+00      62   18    1       0.2688043256E+05      0.6971125307E+05      0.7523862327E+05      0.3161150538E+00
          0                 4           2            28   66     1       0.8168183314E-01      62   18    1       0.4770781429E+04      0.6063925111E+04      0.6971125307E+05      0.8168183314E-01
          0                 5           2            28   66     1       0.8146503909E-01      62   18    1       0.8467501020E+03      0.8671895887E+03      0.6063925111E+04      0.8146503909E-01

    ------------------------------------------------
       NWT REQUIRED            5 OUTER ITERATIONS 
       AND A TOTAL OF         10 INNER ITERATIONS.
    ------------------------------------------------

 OUTPUT CONTROL FOR STRESS PERIOD    1   TIME STEP  174
    SAVE HEAD FOR ALL LAYERS
    SAVE DRAWDOWN FOR ALL LAYERS
    SAVE BUDGET
    PRINT BUDGET
 UBDSV1 SAVING "         STORAGE" ON UNIT   9 AT TIME STEP174, STRESS PERIOD   1
 UBDSV2 SAVING "   CONSTANT HEAD" ON UNIT   9 AT TIME STEP174, STRESS PERIOD   1
 UBDSV1 SAVING "FLOW RIGHT FACE " ON UNIT   9 AT TIME STEP174, STRESS PERIOD   1
 UBDSV1 SAVING "FLOW FRONT FACE " ON UNIT   9 AT TIME STEP174, STRESS PERIOD   1
 UBDSV4 SAVING "   RIVER LEAKAGE" ON UNIT   9 AT TIME STEP174, STRESS PERIOD   1
 UBDSV3 SAVING "        RECHARGE" ON UNIT   9 AT TIME STEP174, STRESS PERIOD   1

 HEAD WILL BE SAVED ON UNIT   37 AT END OF TIME STEP  174, STRESS PERIOD    1

 DRAWDOWN WILL BE SAVED ON UNIT   38 AT END OF TIME STEP  174, STRESS PERIOD    1
1
  VOLUMETRIC BUDGET FOR ENTIRE MODEL AT END OF TIME STEP  174, STRESS PERIOD   1
  ------------------------------------------------------------------------------

     CUMULATIVE VOLUMES      L**3       RATES FOR THIS TIME STEP      L**3/T
     ------------------                 ------------------------

           IN:                                      IN:
           ---                                      ---
             STORAGE =   155021840.0000               STORAGE =      831651.3750
       CONSTANT HEAD =           0.0000         CONSTANT HEAD =           0.0000
       RIVER LEAKAGE =   531330528.0000         RIVER LEAKAGE =     5479784.0000
            RECHARGE =      180547.3906              RECHARGE =          18.3623

            TOTAL IN =   686532928.0000              TOTAL IN =     6311454.0000

          OUT:                                     OUT:
          ----                                     ----
             STORAGE =   684414464.0000               STORAGE =     6262739.5000
       CONSTANT HEAD =           0.0000         CONSTANT HEAD =           0.0000
       RIVER LEAKAGE =     2287713.7500         RIVER LEAKAGE =       48618.8594
            RECHARGE =           0.0000              RECHARGE =           0.0000

           TOTAL OUT =   686702208.0000             TOTAL OUT =     6311358.5000

            IN - OUT =     -169280.0000              IN - OUT =          95.5000

 PERCENT DISCREPANCY =          -0.02     PERCENT DISCREPANCY =           0.00






         TIME SUMMARY AT END OF TIME STEP  174 IN STRESS PERIOD    1
                    SECONDS     MINUTES      HOURS       DAYS        YEARS
                    -----------------------------------------------------------
   TIME STEP LENGTH  86400.      1440.0      24.000      1.0000     2.73785E-03
 STRESS PERIOD TIME 1.50336E+07 2.50560E+05  4176.0      174.00     0.47639    
         TOTAL TIME 1.50336E+07 2.50560E+05  4176.0      174.00     0.47639    
1
 
 SOLVING FOR HEAD 
                                                   Max.-Head-Change                        Max.-Flux-Residual
  Residual-Control   Outer-Iter.   Inner-Iter.     Column Row Layer    Max.-Head-Change    Column Row Layer    Max.-Flux-Residual            L2-New               L2-Old           Solver-Max-Delh
          0                 1           2            59   33     1       0.8374635900E+00      19  122    1       0.1967826309E+06      0.9654675213E+06      0.1506439868E+03      0.8374635900E+00
          0                 2           2            62   18     1       0.5878701660E+00      62   18    1       0.2825332254E+05      0.1004410814E+06      0.9654675213E+06      0.5878701660E+00
          0                 3           2            28   66     1       0.8131780493E-01      62   18    1      -0.2825323688E+04      0.5586682729E+04      0.1004410814E+06      0.8131780493E-01

    ------------------------------------------------
       NWT REQUIRED            3 OUTER ITERATIONS 
       AND A TOTAL OF          6 INNER ITERATIONS.
    ------------------------------------------------

 OUTPUT CONTROL FOR STRESS PERIOD    1   TIME STEP  175
    SAVE HEAD FOR ALL LAYERS
    SAVE DRAWDOWN FOR ALL LAYERS
    SAVE BUDGET
    PRINT BUDGET
 UBDSV1 SAVING "         STORAGE" ON UNIT   9 AT TIME STEP175, STRESS PERIOD   1
 UBDSV2 SAVING "   CONSTANT HEAD" ON UNIT   9 AT TIME STEP175, STRESS PERIOD   1
 UBDSV1 SAVING "FLOW RIGHT FACE " ON UNIT   9 AT TIME STEP175, STRESS PERIOD   1
 UBDSV1 SAVING "FLOW FRONT FACE " ON UNIT   9 AT TIME STEP175, STRESS PERIOD   1
 UBDSV4 SAVING "   RIVER LEAKAGE" ON UNIT   9 AT TIME STEP175, STRESS PERIOD   1
 UBDSV3 SAVING "        RECHARGE" ON UNIT   9 AT TIME STEP175, STRESS PERIOD   1

 HEAD WILL BE SAVED ON UNIT   37 AT END OF TIME STEP  175, STRESS PERIOD    1

 DRAWDOWN WILL BE SAVED ON UNIT   38 AT END OF TIME STEP  175, STRESS PERIOD    1
1
  VOLUMETRIC BUDGET FOR ENTIRE MODEL AT END OF TIME STEP  175, STRESS PERIOD   1
  ------------------------------------------------------------------------------

     CUMULATIVE VOLUMES      L**3       RATES FOR THIS TIME STEP      L**3/T
     ------------------                 ------------------------

           IN:                                      IN:
           ---                                      ---
             STORAGE =   155851120.0000               STORAGE =      829280.3125
       CONSTANT HEAD =           0.0000         CONSTANT HEAD =           0.0000
       RIVER LEAKAGE =   539778560.0000         RIVER LEAKAGE =     8448039.0000
            RECHARGE =      180564.1094              RECHARGE =          16.7216

            TOTAL IN =   695810240.0000              TOTAL IN =     9277336.0000

          OUT:                                     OUT:
          ----                                     ----
             STORAGE =   693648256.0000               STORAGE =     9233810.0000
       CONSTANT HEAD =           0.0000         CONSTANT HEAD =           0.0000
       RIVER LEAKAGE =     2333866.5000         RIVER LEAKAGE =       46152.8633
            RECHARGE =           0.0000              RECHARGE =           0.0000

           TOTAL OUT =   695982144.0000             TOTAL OUT =     9279963.0000

            IN - OUT =     -171904.0000              IN - OUT =       -2627.0000

 PERCENT DISCREPANCY =          -0.02     PERCENT DISCREPANCY =          -0.03






         TIME SUMMARY AT END OF TIME STEP  175 IN STRESS PERIOD    1
                    SECONDS     MINUTES      HOURS       DAYS        YEARS
                    -----------------------------------------------------------
   TIME STEP LENGTH  86400.      1440.0      24.000      1.0000     2.73785E-03
 STRESS PERIOD TIME 1.51200E+07 2.52000E+05  4200.0      175.00     0.47912    
         TOTAL TIME 1.51200E+07 2.52000E+05  4200.0      175.00     0.47912    
1
 
 SOLVING FOR HEAD 
                                                   Max.-Head-Change                        Max.-Flux-Residual
  Residual-Control   Outer-Iter.   Inner-Iter.     Column Row Layer    Max.-Head-Change    Column Row Layer    Max.-Flux-Residual            L2-New               L2-Old           Solver-Max-Delh
          0                 1           2            38   71     1      -0.7143726082E+00      36   74    1      -0.1681745690E+06      0.6594200739E+06      0.2842486799E+03     -0.7143726082E+00
          0                 2           2            62   24     1       0.3324549246E+00      36   74    1       0.1681759723E+05      0.6773738999E+05      0.6594200739E+06      0.3324549246E+00
          0                 3           2            56   55     1       0.3341121717E+00      62   24    1      -0.1652946839E+04      0.3677426000E+04      0.6773738999E+05      0.3341121717E+00
          1                 3           0            56   55     1       0.2338785162E+00      56   55    1      -0.7299428530E+04      0.7301742963E+04      0.3677426000E+04      0.3341121717E+00
          2                 3           0            56   55     1       0.1637149585E+00      56   55    1      -0.4157232443E+04      0.4335878400E+04      0.7301742963E+04      0.3341121717E+00
          0                 4           2            28   66     1       0.8105743612E-01      56   55    1      -0.1957695219E+04      0.2774006712E+04      0.4335878400E+04      0.8105743612E-01

    ------------------------------------------------
       NWT REQUIRED            4 OUTER ITERATIONS 
       AND A TOTAL OF          8 INNER ITERATIONS.
    ------------------------------------------------

 OUTPUT CONTROL FOR STRESS PERIOD    1   TIME STEP  176
    SAVE HEAD FOR ALL LAYERS
    SAVE DRAWDOWN FOR ALL LAYERS
    SAVE BUDGET
    PRINT BUDGET
 UBDSV1 SAVING "         STORAGE" ON UNIT   9 AT TIME STEP176, STRESS PERIOD   1
 UBDSV2 SAVING "   CONSTANT HEAD" ON UNIT   9 AT TIME STEP176, STRESS PERIOD   1
 UBDSV1 SAVING "FLOW RIGHT FACE " ON UNIT   9 AT TIME STEP176, STRESS PERIOD   1
 UBDSV1 SAVING "FLOW FRONT FACE " ON UNIT   9 AT TIME STEP176, STRESS PERIOD   1
 UBDSV4 SAVING "   RIVER LEAKAGE" ON UNIT   9 AT TIME STEP176, STRESS PERIOD   1
 UBDSV3 SAVING "        RECHARGE" ON UNIT   9 AT TIME STEP176, STRESS PERIOD   1

 HEAD WILL BE SAVED ON UNIT   37 AT END OF TIME STEP  176, STRESS PERIOD    1

 DRAWDOWN WILL BE SAVED ON UNIT   38 AT END OF TIME STEP  176, STRESS PERIOD    1
1
  VOLUMETRIC BUDGET FOR ENTIRE MODEL AT END OF TIME STEP  176, STRESS PERIOD   1
  ------------------------------------------------------------------------------

     CUMULATIVE VOLUMES      L**3       RATES FOR THIS TIME STEP      L**3/T
     ------------------                 ------------------------

           IN:                                      IN:
           ---                                      ---
             STORAGE =   156682432.0000               STORAGE =      831315.8750
       CONSTANT HEAD =           0.0000         CONSTANT HEAD =           0.0000
       RIVER LEAKAGE =   544637952.0000         RIVER LEAKAGE =     4859393.5000
            RECHARGE =      180579.3438              RECHARGE =          15.2277

            TOTAL IN =   701500992.0000              TOTAL IN =     5690724.5000

          OUT:                                     OUT:
          ----                                     ----
             STORAGE =   699289728.0000               STORAGE =     5641440.5000
       CONSTANT HEAD =           0.0000         CONSTANT HEAD =           0.0000
       RIVER LEAKAGE =     2383652.2500         RIVER LEAKAGE =       49785.8477
            RECHARGE =           0.0000              RECHARGE =           0.0000

           TOTAL OUT =   701673408.0000             TOTAL OUT =     5691226.5000

            IN - OUT =     -172416.0000              IN - OUT =        -502.0000

 PERCENT DISCREPANCY =          -0.02     PERCENT DISCREPANCY =          -0.01






         TIME SUMMARY AT END OF TIME STEP  176 IN STRESS PERIOD    1
                    SECONDS     MINUTES      HOURS       DAYS        YEARS
                    -----------------------------------------------------------
   TIME STEP LENGTH  86400.      1440.0      24.000      1.0000     2.73785E-03
 STRESS PERIOD TIME 1.52064E+07 2.53440E+05  4224.0      176.00     0.48186    
         TOTAL TIME 1.52064E+07 2.53440E+05  4224.0      176.00     0.48186    
1
 
 SOLVING FOR HEAD 
                                                   Max.-Head-Change                        Max.-Flux-Residual
  Residual-Control   Outer-Iter.   Inner-Iter.     Column Row Layer    Max.-Head-Change    Column Row Layer    Max.-Flux-Residual            L2-New               L2-Old           Solver-Max-Delh
          0                 1           2            62   25     1       0.6606479933E+00      19  122    1       0.9390631415E+05      0.4455377177E+06      0.1386884516E+03      0.6606479933E+00
          0                 2           2            62   19     1       0.4697822893E+00      62   19    1       0.2406569355E+05      0.5141377375E+05      0.4455377177E+06      0.4697822893E+00
          0                 3           2            28   66     1       0.8089861266E-01      62   19    1      -0.2406567399E+04      0.3471136035E+04      0.5141377375E+05      0.8089861266E-01

    ------------------------------------------------
       NWT REQUIRED            3 OUTER ITERATIONS 
       AND A TOTAL OF          6 INNER ITERATIONS.
    ------------------------------------------------

 OUTPUT CONTROL FOR STRESS PERIOD    1   TIME STEP  177
    SAVE HEAD FOR ALL LAYERS
    SAVE DRAWDOWN FOR ALL LAYERS
    SAVE BUDGET
    PRINT BUDGET
 UBDSV1 SAVING "         STORAGE" ON UNIT   9 AT TIME STEP177, STRESS PERIOD   1
 UBDSV2 SAVING "   CONSTANT HEAD" ON UNIT   9 AT TIME STEP177, STRESS PERIOD   1
 UBDSV1 SAVING "FLOW RIGHT FACE " ON UNIT   9 AT TIME STEP177, STRESS PERIOD   1
 UBDSV1 SAVING "FLOW FRONT FACE " ON UNIT   9 AT TIME STEP177, STRESS PERIOD   1
 UBDSV4 SAVING "   RIVER LEAKAGE" ON UNIT   9 AT TIME STEP177, STRESS PERIOD   1
 UBDSV3 SAVING "        RECHARGE" ON UNIT   9 AT TIME STEP177, STRESS PERIOD   1

 HEAD WILL BE SAVED ON UNIT   37 AT END OF TIME STEP  177, STRESS PERIOD    1

 DRAWDOWN WILL BE SAVED ON UNIT   38 AT END OF TIME STEP  177, STRESS PERIOD    1
1
  VOLUMETRIC BUDGET FOR ENTIRE MODEL AT END OF TIME STEP  177, STRESS PERIOD   1
  ------------------------------------------------------------------------------

     CUMULATIVE VOLUMES      L**3       RATES FOR THIS TIME STEP      L**3/T
     ------------------                 ------------------------

           IN:                                      IN:
           ---                                      ---
             STORAGE =   157511088.0000               STORAGE =      828651.8750
       CONSTANT HEAD =           0.0000         CONSTANT HEAD =           0.0000
       RIVER LEAKAGE =   548994944.0000         RIVER LEAKAGE =     4357022.0000
            RECHARGE =      180593.2031              RECHARGE =          13.8672

            TOTAL IN =   706686656.0000              TOTAL IN =     5185688.0000

          OUT:                                     OUT:
          ----                                     ----
             STORAGE =   704428672.0000               STORAGE =     5138971.5000
       CONSTANT HEAD =           0.0000         CONSTANT HEAD =           0.0000
       RIVER LEAKAGE =     2431518.0000         RIVER LEAKAGE =       47865.6992
            RECHARGE =           0.0000              RECHARGE =           0.0000

           TOTAL OUT =   706860160.0000             TOTAL OUT =     5186837.0000

            IN - OUT =     -173504.0000              IN - OUT =       -1149.0000

 PERCENT DISCREPANCY =          -0.02     PERCENT DISCREPANCY =          -0.02






         TIME SUMMARY AT END OF TIME STEP  177 IN STRESS PERIOD    1
                    SECONDS     MINUTES      HOURS       DAYS        YEARS
                    -----------------------------------------------------------
   TIME STEP LENGTH  86400.      1440.0      24.000      1.0000     2.73785E-03
 STRESS PERIOD TIME 1.52928E+07 2.54880E+05  4248.0      177.00     0.48460    
         TOTAL TIME 1.52928E+07 2.54880E+05  4248.0      177.00     0.48460    
1
 
 SOLVING FOR HEAD 
                                                   Max.-Head-Change                        Max.-Flux-Residual
  Residual-Control   Outer-Iter.   Inner-Iter.     Column Row Layer    Max.-Head-Change    Column Row Layer    Max.-Flux-Residual            L2-New               L2-Old           Solver-Max-Delh
          0                 1           2            62   27     1       0.7729516391E+00      19  122    1       0.1233959349E+06      0.5639844407E+06      0.1735535902E+03      0.7729516391E+00
          0                 2           2            62   21     1       0.3857686153E+00      62   21    1       0.2077994053E+05      0.6335617165E+05      0.5639844407E+06      0.3857686153E+00
          0                 3           2            28   66     1       0.8073386655E-01      62   21    1      -0.2077993802E+04      0.4156675649E+04      0.6335617165E+05      0.8073386655E-01
          0                 4           2            28   66     1       0.8051470077E-01      30   66    1      -0.4496757361E+04      0.4501557205E+04      0.4156675649E+04      0.8051470077E-01

    ------------------------------------------------
       NWT REQUIRED            4 OUTER ITERATIONS 
       AND A TOTAL OF          8 INNER ITERATIONS.
    ------------------------------------------------

 OUTPUT CONTROL FOR STRESS PERIOD    1   TIME STEP  178
    SAVE HEAD FOR ALL LAYERS
    SAVE DRAWDOWN FOR ALL LAYERS
    SAVE BUDGET
    PRINT BUDGET
 UBDSV1 SAVING "         STORAGE" ON UNIT   9 AT TIME STEP178, STRESS PERIOD   1
 UBDSV2 SAVING "   CONSTANT HEAD" ON UNIT   9 AT TIME STEP178, STRESS PERIOD   1
 UBDSV1 SAVING "FLOW RIGHT FACE " ON UNIT   9 AT TIME STEP178, STRESS PERIOD   1
 UBDSV1 SAVING "FLOW FRONT FACE " ON UNIT   9 AT TIME STEP178, STRESS PERIOD   1
 UBDSV4 SAVING "   RIVER LEAKAGE" ON UNIT   9 AT TIME STEP178, STRESS PERIOD   1
 UBDSV3 SAVING "        RECHARGE" ON UNIT   9 AT TIME STEP178, STRESS PERIOD   1

 HEAD WILL BE SAVED ON UNIT   37 AT END OF TIME STEP  178, STRESS PERIOD    1

 DRAWDOWN WILL BE SAVED ON UNIT   38 AT END OF TIME STEP  178, STRESS PERIOD    1
1
  VOLUMETRIC BUDGET FOR ENTIRE MODEL AT END OF TIME STEP  178, STRESS PERIOD   1
  ------------------------------------------------------------------------------

     CUMULATIVE VOLUMES      L**3       RATES FOR THIS TIME STEP      L**3/T
     ------------------                 ------------------------

           IN:                                      IN:
           ---                                      ---
             STORAGE =   158338400.0000               STORAGE =      827311.5000
       CONSTANT HEAD =           0.0000         CONSTANT HEAD =           0.0000
       RIVER LEAKAGE =   554218624.0000         RIVER LEAKAGE =     5223676.0000
            RECHARGE =      180605.8281              RECHARGE =          12.6281

            TOTAL IN =   712737664.0000              TOTAL IN =     6051000.0000

          OUT:                                     OUT:
          ----                                     ----
             STORAGE =   710433472.0000               STORAGE =     6004791.0000
       CONSTANT HEAD =           0.0000         CONSTANT HEAD =           0.0000
       RIVER LEAKAGE =     2478036.2500         RIVER LEAKAGE =       46518.2969
            RECHARGE =           0.0000              RECHARGE =           0.0000

           TOTAL OUT =   712911488.0000             TOTAL OUT =     6051309.5000

            IN - OUT =     -173824.0000              IN - OUT =        -309.5000

 PERCENT DISCREPANCY =          -0.02     PERCENT DISCREPANCY =          -0.01






         TIME SUMMARY AT END OF TIME STEP  178 IN STRESS PERIOD    1
                    SECONDS     MINUTES      HOURS       DAYS        YEARS
                    -----------------------------------------------------------
   TIME STEP LENGTH  86400.      1440.0      24.000      1.0000     2.73785E-03
 STRESS PERIOD TIME 1.53792E+07 2.56320E+05  4272.0      178.00     0.48734    
         TOTAL TIME 1.53792E+07 2.56320E+05  4272.0      178.00     0.48734    
1
 
 SOLVING FOR HEAD 
                                                   Max.-Head-Change                        Max.-Flux-Residual
  Residual-Control   Outer-Iter.   Inner-Iter.     Column Row Layer    Max.-Head-Change    Column Row Layer    Max.-Flux-Residual            L2-New               L2-Old           Solver-Max-Delh
          0                 1           2            62   20     1       0.7090136844E+00      19  122    1       0.1013595944E+06      0.4638896972E+06      0.2251031469E+03      0.7090136844E+00
          0                 2           2            35   42     1       0.3534681556E+02      44   59    1       0.1144711870E+05      0.4804735071E+05      0.4638896972E+06      0.3534681556E+02
          1                 2           0            35   42     1       0.2474277047E+02      35   42    1      -0.3348236838E+06      0.3348336257E+06      0.4804735071E+05      0.3534681556E+02
          2                 2           0            35   42     1       0.1731993904E+02      35   42    1      -0.2324358109E+06      0.2329664698E+06      0.3348336257E+06      0.3534681556E+02
          3                 2           0            35   42     1       0.1212395712E+02      35   42    1      -0.1607643010E+06      0.1627392734E+06      0.2329664698E+06      0.3534681556E+02
          4                 2           0            35   42     1       0.8486769838E+01      35   42    1      -0.1105942450E+06      0.1151259312E+06      0.1627392734E+06      0.3534681556E+02
          5                 2           0            35   42     1       0.5940738786E+01      35   42    1      -0.7547520641E+05      0.8391604830E+05      0.1151259312E+06      0.3534681556E+02
          6                 2           0            35   42     1       0.4158517079E+01      35   42    1      -0.5089187980E+05      0.6471053147E+05      0.8391604830E+05      0.3534681556E+02
          7                 2           0            35   42     1       0.2910961906E+01      35   42    1      -0.3368355146E+05      0.5404997121E+05      0.6471053147E+05      0.3534681556E+02
          0                 3           2            35   42     1      -0.2128914393E+01      35   42    1      -0.2163772183E+05      0.4892721291E+05      0.5404997121E+05     -0.2128914393E+01
                                                   Max.-Head-Change                        Max.-Flux-Residual
  Residual-Control   Outer-Iter.   Inner-Iter.     Column Row Layer    Max.-Head-Change    Column Row Layer    Max.-Flux-Residual            L2-New               L2-Old           Solver-Max-Delh
          0                 4           2            35   42     1      -0.1064467862E+00      35   42    1      -0.1081885544E+04      0.2606855273E+04      0.4892721291E+05     -0.1064467862E+00

    ------------------------------------------------
       NWT REQUIRED            4 OUTER ITERATIONS 
       AND A TOTAL OF          8 INNER ITERATIONS.
    ------------------------------------------------

 OUTPUT CONTROL FOR STRESS PERIOD    1   TIME STEP  179
    SAVE HEAD FOR ALL LAYERS
    SAVE DRAWDOWN FOR ALL LAYERS
    SAVE BUDGET
    PRINT BUDGET
 UBDSV1 SAVING "         STORAGE" ON UNIT   9 AT TIME STEP179, STRESS PERIOD   1
 UBDSV2 SAVING "   CONSTANT HEAD" ON UNIT   9 AT TIME STEP179, STRESS PERIOD   1
 UBDSV1 SAVING "FLOW RIGHT FACE " ON UNIT   9 AT TIME STEP179, STRESS PERIOD   1
 UBDSV1 SAVING "FLOW FRONT FACE " ON UNIT   9 AT TIME STEP179, STRESS PERIOD   1
 UBDSV4 SAVING "   RIVER LEAKAGE" ON UNIT   9 AT TIME STEP179, STRESS PERIOD   1
 UBDSV3 SAVING "        RECHARGE" ON UNIT   9 AT TIME STEP179, STRESS PERIOD   1

 HEAD WILL BE SAVED ON UNIT   37 AT END OF TIME STEP  179, STRESS PERIOD    1

 DRAWDOWN WILL BE SAVED ON UNIT   38 AT END OF TIME STEP  179, STRESS PERIOD    1
1
  VOLUMETRIC BUDGET FOR ENTIRE MODEL AT END OF TIME STEP  179, STRESS PERIOD   1
  ------------------------------------------------------------------------------

     CUMULATIVE VOLUMES      L**3       RATES FOR THIS TIME STEP      L**3/T
     ------------------                 ------------------------

           IN:                                      IN:
           ---                                      ---
             STORAGE =   159166336.0000               STORAGE =      827942.9375
       CONSTANT HEAD =           0.0000         CONSTANT HEAD =           0.0000
       RIVER LEAKAGE =   558593408.0000         RIVER LEAKAGE =     4374792.5000
            RECHARGE =      180617.3281              RECHARGE =          11.4999

            TOTAL IN =   717940352.0000              TOTAL IN =     5202747.0000

          OUT:                                     OUT:
          ----                                     ----
             STORAGE =   715588736.0000               STORAGE =     5155247.0000
       CONSTANT HEAD =           0.0000         CONSTANT HEAD =           0.0000
       RIVER LEAKAGE =     2526476.0000         RIVER LEAKAGE =       48439.7734
            RECHARGE =           0.0000              RECHARGE =           0.0000

           TOTAL OUT =   718115200.0000             TOTAL OUT =     5203687.0000

            IN - OUT =     -174848.0000              IN - OUT =        -940.0000

 PERCENT DISCREPANCY =          -0.02     PERCENT DISCREPANCY =          -0.02






         TIME SUMMARY AT END OF TIME STEP  179 IN STRESS PERIOD    1
                    SECONDS     MINUTES      HOURS       DAYS        YEARS
                    -----------------------------------------------------------
   TIME STEP LENGTH  86400.      1440.0      24.000      1.0000     2.73785E-03
 STRESS PERIOD TIME 1.54656E+07 2.57760E+05  4296.0      179.00     0.49008    
         TOTAL TIME 1.54656E+07 2.57760E+05  4296.0      179.00     0.49008    
1
 
 SOLVING FOR HEAD 
                                                   Max.-Head-Change                        Max.-Flux-Residual
  Residual-Control   Outer-Iter.   Inner-Iter.     Column Row Layer    Max.-Head-Change    Column Row Layer    Max.-Flux-Residual            L2-New               L2-Old           Solver-Max-Delh
          0                 1           2            35   42     1       0.5308554581E+00      19  122    1       0.9201059810E+05      0.4165983252E+06      0.1303160766E+03      0.5308554581E+00
          0                 2           2            61   31     1       0.1469076902E+01      19  122    1      -0.9201293600E+04      0.4141506584E+05      0.4165983252E+06      0.1469076902E+01
          1                 2           0            61   31     1       0.1028353814E+01      61   31    1      -0.7843529640E+05      0.7846262569E+05      0.4141506584E+05      0.1469076902E+01
          2                 2           0            61   31     1       0.7198476575E+00      61   31    1      -0.5396142456E+05      0.5571641161E+05      0.7846262569E+05      0.1469076902E+01
          0                 3           2            61   31     1      -0.6300654281E+00      61   31    1      -0.3682971446E+05      0.4297011283E+05      0.5571641161E+05     -0.6300654281E+00
          0                 4           2            28   66     1       0.8004439168E-01      61   31    1      -0.1841484989E+04      0.2148392938E+04      0.4297011283E+05      0.8004439168E-01

    ------------------------------------------------
       NWT REQUIRED            4 OUTER ITERATIONS 
       AND A TOTAL OF          8 INNER ITERATIONS.
    ------------------------------------------------

 OUTPUT CONTROL FOR STRESS PERIOD    1   TIME STEP  180
    SAVE HEAD FOR ALL LAYERS
    SAVE DRAWDOWN FOR ALL LAYERS
    SAVE BUDGET
    PRINT BUDGET
 UBDSV1 SAVING "         STORAGE" ON UNIT   9 AT TIME STEP180, STRESS PERIOD   1
 UBDSV2 SAVING "   CONSTANT HEAD" ON UNIT   9 AT TIME STEP180, STRESS PERIOD   1
 UBDSV1 SAVING "FLOW RIGHT FACE " ON UNIT   9 AT TIME STEP180, STRESS PERIOD   1
 UBDSV1 SAVING "FLOW FRONT FACE " ON UNIT   9 AT TIME STEP180, STRESS PERIOD   1
 UBDSV4 SAVING "   RIVER LEAKAGE" ON UNIT   9 AT TIME STEP180, STRESS PERIOD   1
 UBDSV3 SAVING "        RECHARGE" ON UNIT   9 AT TIME STEP180, STRESS PERIOD   1

 HEAD WILL BE SAVED ON UNIT   37 AT END OF TIME STEP  180, STRESS PERIOD    1

 DRAWDOWN WILL BE SAVED ON UNIT   38 AT END OF TIME STEP  180, STRESS PERIOD    1
1
  VOLUMETRIC BUDGET FOR ENTIRE MODEL AT END OF TIME STEP  180, STRESS PERIOD   1
  ------------------------------------------------------------------------------

     CUMULATIVE VOLUMES      L**3       RATES FOR THIS TIME STEP      L**3/T
     ------------------                 ------------------------

           IN:                                      IN:
           ---                                      ---
             STORAGE =   159993152.0000               STORAGE =      826812.0625
       CONSTANT HEAD =           0.0000         CONSTANT HEAD =           0.0000
       RIVER LEAKAGE =   562627200.0000         RIVER LEAKAGE =     4033794.7500
            RECHARGE =      180627.7969              RECHARGE =          10.4725

            TOTAL IN =   722800960.0000              TOTAL IN =     4860617.5000

          OUT:                                     OUT:
          ----                                     ----
             STORAGE =   720401664.0000               STORAGE =     4812957.0000
       CONSTANT HEAD =           0.0000         CONSTANT HEAD =           0.0000
       RIVER LEAKAGE =     2574705.0000         RIVER LEAKAGE =       48229.0820
            RECHARGE =           0.0000              RECHARGE =           0.0000

           TOTAL OUT =   722976384.0000             TOTAL OUT =     4861186.0000

            IN - OUT =     -175424.0000              IN - OUT =        -568.5000

 PERCENT DISCREPANCY =          -0.02     PERCENT DISCREPANCY =          -0.01






         TIME SUMMARY AT END OF TIME STEP  180 IN STRESS PERIOD    1
                    SECONDS     MINUTES      HOURS       DAYS        YEARS
                    -----------------------------------------------------------
   TIME STEP LENGTH  86400.      1440.0      24.000      1.0000     2.73785E-03
 STRESS PERIOD TIME 1.55520E+07 2.59200E+05  4320.0      180.00     0.49281    
         TOTAL TIME 1.55520E+07 2.59200E+05  4320.0      180.00     0.49281    
1
 
 SOLVING FOR HEAD 
                                                   Max.-Head-Change                        Max.-Flux-Residual
  Residual-Control   Outer-Iter.   Inner-Iter.     Column Row Layer    Max.-Head-Change    Column Row Layer    Max.-Flux-Residual            L2-New               L2-Old           Solver-Max-Delh
          0                 1           2            61   31     1       0.8602508660E+00      19  122    1       0.8736429652E+05      0.3973097657E+06      0.1074079775E+03      0.8602508660E+00
          0                 2           2            28   66     1       0.8008520489E-01      19  122    1      -0.8736640252E+04      0.3973225431E+05      0.3973097657E+06      0.8008520489E-01
          0                 3           2            28   66     1       0.7986426481E-01      19  122    1      -0.4368333618E+03      0.1986622044E+04      0.3973225431E+05      0.7986426481E-01

    ------------------------------------------------
       NWT REQUIRED            3 OUTER ITERATIONS 
       AND A TOTAL OF          6 INNER ITERATIONS.
    ------------------------------------------------

 OUTPUT CONTROL FOR STRESS PERIOD    1   TIME STEP  181
    SAVE HEAD FOR ALL LAYERS
    SAVE DRAWDOWN FOR ALL LAYERS
    SAVE BUDGET
    PRINT BUDGET
 UBDSV1 SAVING "         STORAGE" ON UNIT   9 AT TIME STEP181, STRESS PERIOD   1
 UBDSV2 SAVING "   CONSTANT HEAD" ON UNIT   9 AT TIME STEP181, STRESS PERIOD   1
 UBDSV1 SAVING "FLOW RIGHT FACE " ON UNIT   9 AT TIME STEP181, STRESS PERIOD   1
 UBDSV1 SAVING "FLOW FRONT FACE " ON UNIT   9 AT TIME STEP181, STRESS PERIOD   1
 UBDSV4 SAVING "   RIVER LEAKAGE" ON UNIT   9 AT TIME STEP181, STRESS PERIOD   1
 UBDSV3 SAVING "        RECHARGE" ON UNIT   9 AT TIME STEP181, STRESS PERIOD   1

 HEAD WILL BE SAVED ON UNIT   37 AT END OF TIME STEP  181, STRESS PERIOD    1

 DRAWDOWN WILL BE SAVED ON UNIT   38 AT END OF TIME STEP  181, STRESS PERIOD    1
1
  VOLUMETRIC BUDGET FOR ENTIRE MODEL AT END OF TIME STEP  181, STRESS PERIOD   1
  ------------------------------------------------------------------------------

     CUMULATIVE VOLUMES      L**3       RATES FOR THIS TIME STEP      L**3/T
     ------------------                 ------------------------

           IN:                                      IN:
           ---                                      ---
             STORAGE =   160819248.0000               STORAGE =      826096.4375
       CONSTANT HEAD =           0.0000         CONSTANT HEAD =           0.0000
       RIVER LEAKAGE =   566458560.0000         RIVER LEAKAGE =     3831374.0000
            RECHARGE =      180637.3281              RECHARGE =           9.5369

            TOTAL IN =   727458432.0000              TOTAL IN =     4657480.0000

          OUT:                                     OUT:
          ----                                     ----
             STORAGE =   725011904.0000               STORAGE =     4610267.0000
       CONSTANT HEAD =           0.0000         CONSTANT HEAD =           0.0000
       RIVER LEAKAGE =     2622825.0000         RIVER LEAKAGE =       48119.9062
            RECHARGE =           0.0000              RECHARGE =           0.0000

           TOTAL OUT =   727634752.0000             TOTAL OUT =     4658387.0000

            IN - OUT =     -176320.0000              IN - OUT =        -907.0000

 PERCENT DISCREPANCY =          -0.02     PERCENT DISCREPANCY =          -0.02






         TIME SUMMARY AT END OF TIME STEP  181 IN STRESS PERIOD    1
                    SECONDS     MINUTES      HOURS       DAYS        YEARS
                    -----------------------------------------------------------
   TIME STEP LENGTH  86400.      1440.0      24.000      1.0000     2.73785E-03
 STRESS PERIOD TIME 1.56384E+07 2.60640E+05  4344.0      181.00     0.49555    
         TOTAL TIME 1.56384E+07 2.60640E+05  4344.0      181.00     0.49555    
1
 
 SOLVING FOR HEAD 
                                                   Max.-Head-Change                        Max.-Flux-Residual
  Residual-Control   Outer-Iter.   Inner-Iter.     Column Row Layer    Max.-Head-Change    Column Row Layer    Max.-Flux-Residual            L2-New               L2-Old           Solver-Max-Delh
          0                 1           2            38   71     1       0.6760805992E+00      19  122    1       0.1678377950E+06      0.8566310567E+06      0.9932821830E+02      0.6760805992E+00
          0                 2           2            58   34     1      -0.1764260671E+02      19  122    1      -0.1678456129E+05      0.8557922802E+05      0.8566310567E+06     -0.1764260671E+02
          1                 2           0            58   34     1      -0.1234982449E+02      58   34    1       0.1759399489E+07      0.1759404684E+07      0.8557922802E+05     -0.1764260671E+02
          2                 2           0            58   34     1      -0.8644876994E+01      58   34    1       0.1230678954E+07      0.1231012285E+07      0.1759404684E+07     -0.1764260671E+02
          3                 2           0            58   34     1      -0.6051413793E+01      58   34    1       0.8602408873E+06      0.8614541602E+06      0.1231012285E+07     -0.1764260671E+02
          4                 2           0            58   34     1      -0.4235989583E+01      58   34    1       0.6007707334E+06      0.6035300209E+06      0.8614541602E+06     -0.1764260671E+02
          5                 2           0            58   34     1      -0.2965192657E+01      58   34    1       0.4190615079E+06      0.4242276906E+06      0.6035300209E+06     -0.1764260671E+02
          6                 2           0            58   34     1      -0.2075634825E+01      58   34    1       0.2918257929E+06      0.3005420561E+06      0.4242276906E+06     -0.1764260671E+02
          7                 2           0            58   34     1      -0.1452944353E+01      58   34    1       0.2027415569E+06      0.2165011965E+06      0.3005420561E+06     -0.1764260671E+02
          8                 2           0            58   34     1      -0.1017061030E+01      58   34    1       0.1403731667E+06      0.1609875618E+06      0.2165011965E+06     -0.1764260671E+02
                                                   Max.-Head-Change                        Max.-Flux-Residual
  Residual-Control   Outer-Iter.   Inner-Iter.     Column Row Layer    Max.-Head-Change    Column Row Layer    Max.-Flux-Residual            L2-New               L2-Old           Solver-Max-Delh
          9                 2           0            58   34     1      -0.7119427085E+00      58   34    1       0.9671067544E+05      0.1260385808E+06      0.1609875618E+06     -0.1764260671E+02
         10                 2           0            58   34     1      -0.4983598875E+00      58   34    1       0.6614466888E+05      0.1055317939E+06      0.1260385808E+06     -0.1764260671E+02
         11                 2           0            58   34     1      -0.3488519153E+00      58   34    1       0.4474735567E+05      0.9448210439E+05      0.1055317939E+06     -0.1764260671E+02
          0                 3           2            58   34     1       0.2443881019E+00      58   34    1       0.2976869328E+05      0.8902672682E+05      0.9448210439E+05      0.2443881019E+00
          0                 4           2            28   66     1       0.7967414380E-01      58   34    1       0.5283339895E+04      0.6745790201E+04      0.8902672682E+05      0.7967414380E-01
          0                 5           2            28   66     1       0.7945303389E-01      58   34    1       0.9377207419E+03      0.9608685875E+03      0.6745790201E+04      0.7945303389E-01

    ------------------------------------------------
       NWT REQUIRED            5 OUTER ITERATIONS 
       AND A TOTAL OF         10 INNER ITERATIONS.
    ------------------------------------------------

 OUTPUT CONTROL FOR STRESS PERIOD    1   TIME STEP  182
    SAVE HEAD FOR ALL LAYERS
    SAVE DRAWDOWN FOR ALL LAYERS
    SAVE BUDGET
    PRINT BUDGET
 UBDSV1 SAVING "         STORAGE" ON UNIT   9 AT TIME STEP182, STRESS PERIOD   1
 UBDSV2 SAVING "   CONSTANT HEAD" ON UNIT   9 AT TIME STEP182, STRESS PERIOD   1
 UBDSV1 SAVING "FLOW RIGHT FACE " ON UNIT   9 AT TIME STEP182, STRESS PERIOD   1
 UBDSV1 SAVING "FLOW FRONT FACE " ON UNIT   9 AT TIME STEP182, STRESS PERIOD   1
 UBDSV4 SAVING "   RIVER LEAKAGE" ON UNIT   9 AT TIME STEP182, STRESS PERIOD   1
 UBDSV3 SAVING "        RECHARGE" ON UNIT   9 AT TIME STEP182, STRESS PERIOD   1

 HEAD WILL BE SAVED ON UNIT   37 AT END OF TIME STEP  182, STRESS PERIOD    1

 DRAWDOWN WILL BE SAVED ON UNIT   38 AT END OF TIME STEP  182, STRESS PERIOD    1
1
  VOLUMETRIC BUDGET FOR ENTIRE MODEL AT END OF TIME STEP  182, STRESS PERIOD   1
  ------------------------------------------------------------------------------

     CUMULATIVE VOLUMES      L**3       RATES FOR THIS TIME STEP      L**3/T
     ------------------                 ------------------------

           IN:                                      IN:
           ---                                      ---
             STORAGE =   161644208.0000               STORAGE =      824956.0625
       CONSTANT HEAD =           0.0000         CONSTANT HEAD =           0.0000
       RIVER LEAKAGE =   573477120.0000         RIVER LEAKAGE =     7018560.0000
            RECHARGE =      180646.0156              RECHARGE =           8.6848

            TOTAL IN =   735302016.0000              TOTAL IN =     7843524.5000

          OUT:                                     OUT:
          ----                                     ----
             STORAGE =   732808896.0000               STORAGE =     7797011.0000
       CONSTANT HEAD =           0.0000         CONSTANT HEAD =           0.0000
       RIVER LEAKAGE =     2669279.2500         RIVER LEAKAGE =       46454.2461
            RECHARGE =           0.0000              RECHARGE =           0.0000

           TOTAL OUT =   735478144.0000             TOTAL OUT =     7843465.0000

            IN - OUT =     -176128.0000              IN - OUT =          59.5000

 PERCENT DISCREPANCY =          -0.02     PERCENT DISCREPANCY =           0.00






         TIME SUMMARY AT END OF TIME STEP  182 IN STRESS PERIOD    1
                    SECONDS     MINUTES      HOURS       DAYS        YEARS
                    -----------------------------------------------------------
   TIME STEP LENGTH  86400.      1440.0      24.000      1.0000     2.73785E-03
 STRESS PERIOD TIME 1.57248E+07 2.62080E+05  4368.0      182.00     0.49829    
         TOTAL TIME 1.57248E+07 2.62080E+05  4368.0      182.00     0.49829    
1
 
 SOLVING FOR HEAD 
                                                   Max.-Head-Change                        Max.-Flux-Residual
  Residual-Control   Outer-Iter.   Inner-Iter.     Column Row Layer    Max.-Head-Change    Column Row Layer    Max.-Flux-Residual            L2-New               L2-Old           Solver-Max-Delh
          0                 1           2            58   34     1       0.7085498891E+00      19  122    1       0.1688353268E+06      0.7584361588E+06      0.1667656337E+03      0.7085498891E+00
          0                 2           2            60   31     1       0.1900678308E+02      58   34    1       0.2915102433E+05      0.8083395014E+05      0.7584361588E+06      0.1900678308E+02
          1                 2           0            60   31     1       0.1330474793E+02      60   31    1      -0.9722039915E+06      0.9722156585E+06      0.8083395014E+05      0.1900678308E+02
          2                 2           0            60   31     1       0.9313323391E+01      60   31    1      -0.6794840231E+06      0.6799855782E+06      0.9722156585E+06      0.1900678308E+02
          3                 2           0            60   31     1       0.6519326263E+01      60   31    1      -0.4745800488E+06      0.4764747215E+06      0.6799855782E+06      0.1900678308E+02
          4                 2           0            60   31     1       0.4563528306E+01      60   31    1      -0.3311472691E+06      0.3355104528E+06      0.4764747215E+06      0.1900678308E+02
          5                 2           0            60   31     1       0.3194469760E+01      60   31    1      -0.2307443251E+06      0.2389238585E+06      0.3355104528E+06      0.1900678308E+02
          6                 2           0            60   31     1       0.2236128794E+01      60   31    1      -0.1604622655E+06      0.1741273648E+06      0.2389238585E+06      0.1900678308E+02
          7                 2           0            60   31     1       0.1565290129E+01      60   31    1      -0.1112648246E+06      0.1322928824E+06      0.1741273648E+06      0.1900678308E+02
          8                 2           0            60   31     1       0.1095703072E+01      60   31    1      -0.7682661652E+05      0.1068972497E+06      0.1322928824E+06      0.1900678308E+02
                                                   Max.-Head-Change                        Max.-Flux-Residual
  Residual-Control   Outer-Iter.   Inner-Iter.     Column Row Layer    Max.-Head-Change    Column Row Layer    Max.-Flux-Residual            L2-New               L2-Old           Solver-Max-Delh
          9                 2           0            60   31     1       0.7669921371E+00      60   31    1      -0.5271987130E+05      0.9271136891E+05      0.1068972497E+06      0.1900678308E+02
          0                 3           2            60   31     1      -0.6633331956E+00      60   31    1      -0.3584514993E+05      0.8549432274E+05      0.9271136891E+05     -0.6633331956E+00
          0                 4           2            28   66     1       0.7925424968E-01      58   34    1      -0.2785698031E+04      0.4907962644E+04      0.8549432274E+05      0.7925424968E-01

    ------------------------------------------------
       NWT REQUIRED            4 OUTER ITERATIONS 
       AND A TOTAL OF          8 INNER ITERATIONS.
    ------------------------------------------------

 OUTPUT CONTROL FOR STRESS PERIOD    1   TIME STEP  183
    SAVE HEAD FOR ALL LAYERS
    SAVE DRAWDOWN FOR ALL LAYERS
    SAVE BUDGET
    PRINT BUDGET
 UBDSV1 SAVING "         STORAGE" ON UNIT   9 AT TIME STEP183, STRESS PERIOD   1
 UBDSV2 SAVING "   CONSTANT HEAD" ON UNIT   9 AT TIME STEP183, STRESS PERIOD   1
 UBDSV1 SAVING "FLOW RIGHT FACE " ON UNIT   9 AT TIME STEP183, STRESS PERIOD   1
 UBDSV1 SAVING "FLOW FRONT FACE " ON UNIT   9 AT TIME STEP183, STRESS PERIOD   1
 UBDSV4 SAVING "   RIVER LEAKAGE" ON UNIT   9 AT TIME STEP183, STRESS PERIOD   1
 UBDSV3 SAVING "        RECHARGE" ON UNIT   9 AT TIME STEP183, STRESS PERIOD   1

 HEAD WILL BE SAVED ON UNIT   37 AT END OF TIME STEP  183, STRESS PERIOD    1

 DRAWDOWN WILL BE SAVED ON UNIT   38 AT END OF TIME STEP  183, STRESS PERIOD    1
1
  VOLUMETRIC BUDGET FOR ENTIRE MODEL AT END OF TIME STEP  183, STRESS PERIOD   1
  ------------------------------------------------------------------------------

     CUMULATIVE VOLUMES      L**3       RATES FOR THIS TIME STEP      L**3/T
     ------------------                 ------------------------

           IN:                                      IN:
           ---                                      ---
             STORAGE =   162469856.0000               STORAGE =      825651.0000
       CONSTANT HEAD =           0.0000         CONSTANT HEAD =           0.0000
       RIVER LEAKAGE =   579987584.0000         RIVER LEAKAGE =     6510438.0000
            RECHARGE =      180653.9219              RECHARGE =           7.9089

            TOTAL IN =   742638080.0000              TOTAL IN =     7336097.0000

          OUT:                                     OUT:
          ----                                     ----
             STORAGE =   740099136.0000               STORAGE =     7290212.5000
       CONSTANT HEAD =           0.0000         CONSTANT HEAD =           0.0000
       RIVER LEAKAGE =     2717075.7500         RIVER LEAKAGE =       47796.5703
            RECHARGE =           0.0000              RECHARGE =           0.0000

           TOTAL OUT =   742816192.0000             TOTAL OUT =     7338009.0000

            IN - OUT =     -178112.0000              IN - OUT =       -1912.0000

 PERCENT DISCREPANCY =          -0.02     PERCENT DISCREPANCY =          -0.03






         TIME SUMMARY AT END OF TIME STEP  183 IN STRESS PERIOD    1
                    SECONDS     MINUTES      HOURS       DAYS        YEARS
                    -----------------------------------------------------------
   TIME STEP LENGTH  86400.      1440.0      24.000      1.0000     2.73785E-03
 STRESS PERIOD TIME 1.58112E+07 2.63520E+05  4392.0      183.00     0.50103    
         TOTAL TIME 1.58112E+07 2.63520E+05  4392.0      183.00     0.50103    
1
 
 SOLVING FOR HEAD 
                                                   Max.-Head-Change                        Max.-Flux-Residual
  Residual-Control   Outer-Iter.   Inner-Iter.     Column Row Layer    Max.-Head-Change    Column Row Layer    Max.-Flux-Residual            L2-New               L2-Old           Solver-Max-Delh
          0                 1           2            60   31     1       0.1213653520E+01      33   90    1       0.4888100292E+06      0.2029486208E+07      0.2453450622E+03      0.1213653520E+01
          0                 2           2            48   50     1       0.6649140006E+01      25  116    1       0.1493219780E+06      0.2511885314E+06      0.2029486208E+07      0.6649140006E+01
          0                 3           2            48   50     1      -0.6148472973E+01      48   50    1      -0.7319810366E+05      0.7538505453E+05      0.2511885314E+06     -0.6148472973E+01
          0                 4           2            48   50     1      -0.3074267290E+00      48   50    1      -0.3659903330E+04      0.3769237811E+04      0.7538505453E+05     -0.3074267290E+00

    ------------------------------------------------
       NWT REQUIRED            4 OUTER ITERATIONS 
       AND A TOTAL OF          8 INNER ITERATIONS.
    ------------------------------------------------

 OUTPUT CONTROL FOR STRESS PERIOD    1   TIME STEP  184
    SAVE HEAD FOR ALL LAYERS
    SAVE DRAWDOWN FOR ALL LAYERS
    SAVE BUDGET
    PRINT BUDGET
 UBDSV1 SAVING "         STORAGE" ON UNIT   9 AT TIME STEP184, STRESS PERIOD   1
 UBDSV2 SAVING "   CONSTANT HEAD" ON UNIT   9 AT TIME STEP184, STRESS PERIOD   1
 UBDSV1 SAVING "FLOW RIGHT FACE " ON UNIT   9 AT TIME STEP184, STRESS PERIOD   1
 UBDSV1 SAVING "FLOW FRONT FACE " ON UNIT   9 AT TIME STEP184, STRESS PERIOD   1
 UBDSV4 SAVING "   RIVER LEAKAGE" ON UNIT   9 AT TIME STEP184, STRESS PERIOD   1
 UBDSV3 SAVING "        RECHARGE" ON UNIT   9 AT TIME STEP184, STRESS PERIOD   1

 HEAD WILL BE SAVED ON UNIT   37 AT END OF TIME STEP  184, STRESS PERIOD    1

 DRAWDOWN WILL BE SAVED ON UNIT   38 AT END OF TIME STEP  184, STRESS PERIOD    1
1
  VOLUMETRIC BUDGET FOR ENTIRE MODEL AT END OF TIME STEP  184, STRESS PERIOD   1
  ------------------------------------------------------------------------------

     CUMULATIVE VOLUMES      L**3       RATES FOR THIS TIME STEP      L**3/T
     ------------------                 ------------------------

           IN:                                      IN:
           ---                                      ---
             STORAGE =   163293712.0000               STORAGE =      823848.5000
       CONSTANT HEAD =           0.0000         CONSTANT HEAD =           0.0000
       RIVER LEAKAGE =   596363392.0000         RIVER LEAKAGE =    16375830.0000
            RECHARGE =      180661.1250              RECHARGE =           7.2021

            TOTAL IN =   759837760.0000              TOTAL IN =    17199686.0000

          OUT:                                     OUT:
          ----                                     ----
             STORAGE =   757252480.0000               STORAGE =    17153360.0000
       CONSTANT HEAD =           0.0000         CONSTANT HEAD =           0.0000
       RIVER LEAKAGE =     2763837.7500         RIVER LEAKAGE =       46761.9688
            RECHARGE =           0.0000              RECHARGE =           0.0000

           TOTAL OUT =   760016320.0000             TOTAL OUT =    17200122.0000

            IN - OUT =     -178560.0000              IN - OUT =        -436.0000

 PERCENT DISCREPANCY =          -0.02     PERCENT DISCREPANCY =          -0.00






         TIME SUMMARY AT END OF TIME STEP  184 IN STRESS PERIOD    1
                    SECONDS     MINUTES      HOURS       DAYS        YEARS
                    -----------------------------------------------------------
   TIME STEP LENGTH  86400.      1440.0      24.000      1.0000     2.73785E-03
 STRESS PERIOD TIME 1.58976E+07 2.64960E+05  4416.0      184.00     0.50376    
         TOTAL TIME 1.58976E+07 2.64960E+05  4416.0      184.00     0.50376    
1
 
 SOLVING FOR HEAD 
                                                   Max.-Head-Change                        Max.-Flux-Residual
  Residual-Control   Outer-Iter.   Inner-Iter.     Column Row Layer    Max.-Head-Change    Column Row Layer    Max.-Flux-Residual            L2-New               L2-Old           Solver-Max-Delh
          0                 1           2            28  114     1      -0.8088507809E+00      26  115    1      -0.5194400501E+06      0.1015412260E+07      0.1884326557E+03     -0.8088507809E+00
          0                 2           2            49   41     1       0.3251253171E+02      26  115    1       0.5194418868E+05      0.1032896035E+06      0.1015412260E+07      0.3251253171E+02
          1                 2           0            49   41     1       0.2275877181E+02       4  130    1      -0.2975107250E+07      0.3040859738E+07      0.1032896035E+06      0.3251253171E+02
          2                 2           0            49   41     1       0.1593113999E+02       4  130    1      -0.2073750838E+07      0.2119854945E+07      0.3040859738E+07      0.3251253171E+02
          3                 2           0            49   41     1       0.1115179781E+02       4  130    1      -0.1442801360E+07      0.1475698817E+07      0.2119854945E+07      0.3251253171E+02
          4                 2           0            49   41     1       0.7806258331E+01       4  130    1      -0.1001176989E+07      0.1025624028E+07      0.1475698817E+07      0.3251253171E+02
          5                 2           0            49   41     1       0.5464380739E+01       4  130    1      -0.6921321346E+06      0.7118223667E+06      0.1025624028E+07      0.3251253171E+02
          6                 2           0            49   41     1       0.3825066452E+01       4  130    1      -0.4758007421E+06      0.4938622197E+06      0.7118223667E+06      0.3251253171E+02
          7                 2           0            49   41     1       0.2677546471E+01       4  130    1      -0.3243687707E+06      0.3437828182E+06      0.4938622197E+06      0.3251253171E+02
          8                 2           0            49   41     1       0.1874282498E+01       4  130    1      -0.2183663929E+06      0.2423328627E+06      0.3437828182E+06      0.3251253171E+02
                                                   Max.-Head-Change                        Max.-Flux-Residual
  Residual-Control   Outer-Iter.   Inner-Iter.     Column Row Layer    Max.-Head-Change    Column Row Layer    Max.-Flux-Residual            L2-New               L2-Old           Solver-Max-Delh
          9                 2           0            49   41     1       0.1311997726E+01       4  130    1      -0.1441647298E+06      0.1763116229E+06      0.2423328627E+06      0.3251253171E+02
         10                 2           0            49   41     1       0.9183983926E+00       4  130    1      -0.9222356667E+05      0.1363456354E+06      0.1763116229E+06      0.3251253171E+02
         11                 2           0            49   41     1       0.6428788639E+00       4  130    1      -0.5586475313E+05      0.1148939739E+06      0.1363456354E+06      0.3251253171E+02
          0                 3           2            60   32     1       0.3377495884E+00      26  115    1       0.5096843782E+05      0.1052289019E+06      0.1148939739E+06      0.3377495884E+00
          0                 4           2            28   66     1       0.7863299584E-01      26  115    1       0.2547912229E+04      0.5429634762E+04      0.1052289019E+06      0.7863299584E-01

    ------------------------------------------------
       NWT REQUIRED            4 OUTER ITERATIONS 
       AND A TOTAL OF          8 INNER ITERATIONS.
    ------------------------------------------------

 OUTPUT CONTROL FOR STRESS PERIOD    1   TIME STEP  185
    SAVE HEAD FOR ALL LAYERS
    SAVE DRAWDOWN FOR ALL LAYERS
    SAVE BUDGET
    PRINT BUDGET
 UBDSV1 SAVING "         STORAGE" ON UNIT   9 AT TIME STEP185, STRESS PERIOD   1
 UBDSV2 SAVING "   CONSTANT HEAD" ON UNIT   9 AT TIME STEP185, STRESS PERIOD   1
 UBDSV1 SAVING "FLOW RIGHT FACE " ON UNIT   9 AT TIME STEP185, STRESS PERIOD   1
 UBDSV1 SAVING "FLOW FRONT FACE " ON UNIT   9 AT TIME STEP185, STRESS PERIOD   1
 UBDSV4 SAVING "   RIVER LEAKAGE" ON UNIT   9 AT TIME STEP185, STRESS PERIOD   1
 UBDSV3 SAVING "        RECHARGE" ON UNIT   9 AT TIME STEP185, STRESS PERIOD   1

 HEAD WILL BE SAVED ON UNIT   37 AT END OF TIME STEP  185, STRESS PERIOD    1

 DRAWDOWN WILL BE SAVED ON UNIT   38 AT END OF TIME STEP  185, STRESS PERIOD    1
1
  VOLUMETRIC BUDGET FOR ENTIRE MODEL AT END OF TIME STEP  185, STRESS PERIOD   1
  ------------------------------------------------------------------------------

     CUMULATIVE VOLUMES      L**3       RATES FOR THIS TIME STEP      L**3/T
     ------------------                 ------------------------

           IN:                                      IN:
           ---                                      ---
             STORAGE =   164118720.0000               STORAGE =      825010.9375
       CONSTANT HEAD =           0.0000         CONSTANT HEAD =           0.0000
       RIVER LEAKAGE =   601527936.0000         RIVER LEAKAGE =     5164548.5000
            RECHARGE =      180667.6875              RECHARGE =           6.5587

            TOTAL IN =   765827328.0000              TOTAL IN =     5989566.0000

          OUT:                                     OUT:
          ----                                     ----
             STORAGE =   763189568.0000               STORAGE =     5937060.5000
       CONSTANT HEAD =           0.0000         CONSTANT HEAD =           0.0000
       RIVER LEAKAGE =     2817090.5000         RIVER LEAKAGE =       53252.6836
            RECHARGE =           0.0000              RECHARGE =           0.0000

           TOTAL OUT =   766006656.0000             TOTAL OUT =     5990313.0000

            IN - OUT =     -179328.0000              IN - OUT =        -747.0000

 PERCENT DISCREPANCY =          -0.02     PERCENT DISCREPANCY =          -0.01






         TIME SUMMARY AT END OF TIME STEP  185 IN STRESS PERIOD    1
                    SECONDS     MINUTES      HOURS       DAYS        YEARS
                    -----------------------------------------------------------
   TIME STEP LENGTH  86400.      1440.0      24.000      1.0000     2.73785E-03
 STRESS PERIOD TIME 1.59840E+07 2.66400E+05  4440.0      185.00     0.50650    
         TOTAL TIME 1.59840E+07 2.66400E+05  4440.0      185.00     0.50650    
1
 
 SOLVING FOR HEAD 
                                                   Max.-Head-Change                        Max.-Flux-Residual
  Residual-Control   Outer-Iter.   Inner-Iter.     Column Row Layer    Max.-Head-Change    Column Row Layer    Max.-Flux-Residual            L2-New               L2-Old           Solver-Max-Delh
          0                 1           2            38   71     1       0.9688903973E+00      19  122    1       0.2612911702E+06      0.1267029195E+07      0.2713928314E+03      0.9688903973E+00
          0                 2           2             2  130     1       0.1029342848E+02       2  130    1       0.2854199206E+05      0.1296341512E+06      0.1267029195E+07      0.1029342848E+02
          1                 2           0             2  130     1       0.7205399814E+01       2  130    1      -0.1393172914E+07      0.1393189208E+07      0.1296341512E+06      0.1029342848E+02
          2                 2           0             2  130     1       0.5043779784E+01       2  130    1      -0.9638625171E+06      0.9647902880E+06      0.1393189208E+07      0.1029342848E+02
          3                 2           0             2  130     1       0.3530645788E+01       2  130    1      -0.6633792306E+06      0.6668081479E+06      0.9647902880E+06      0.1029342848E+02
          4                 2           0             2  130     1       0.2471452010E+01       2  130    1      -0.4530490293E+06      0.4609932006E+06      0.6668081479E+06      0.1029342848E+02
          5                 2           0             2  130     1       0.1730016377E+01       2  130    1      -0.3058179019E+06      0.3210115741E+06      0.4609932006E+06      0.1029342848E+02
          6                 2           0             2  130     1       0.1211011444E+01       2  130    1      -0.2028169692E+06      0.2289634748E+06      0.3210115741E+06      0.1029342848E+02
          7                 2           0             2  130     1       0.8477079960E+00       2  130    1      -0.1307997958E+06      0.1724026656E+06      0.2289634748E+06      0.1029342848E+02
          0                 3           2             2  130     1      -0.5504508610E+00       2  130    1      -0.8038777657E+05      0.1415880483E+06      0.1724026656E+06     -0.5504508610E+00
                                                   Max.-Head-Change                        Max.-Flux-Residual
  Residual-Control   Outer-Iter.   Inner-Iter.     Column Row Layer    Max.-Head-Change    Column Row Layer    Max.-Flux-Residual            L2-New               L2-Old           Solver-Max-Delh
          0                 4           2            28   66     1       0.7840961516E-01       2  130    1      -0.4019388721E+04      0.7078455643E+04      0.1415880483E+06      0.7840961516E-01

    ------------------------------------------------
       NWT REQUIRED            4 OUTER ITERATIONS 
       AND A TOTAL OF          8 INNER ITERATIONS.
    ------------------------------------------------

 OUTPUT CONTROL FOR STRESS PERIOD    1   TIME STEP  186
    SAVE HEAD FOR ALL LAYERS
    SAVE DRAWDOWN FOR ALL LAYERS
    SAVE BUDGET
    PRINT BUDGET
 UBDSV1 SAVING "         STORAGE" ON UNIT   9 AT TIME STEP186, STRESS PERIOD   1
 UBDSV2 SAVING "   CONSTANT HEAD" ON UNIT   9 AT TIME STEP186, STRESS PERIOD   1
 UBDSV1 SAVING "FLOW RIGHT FACE " ON UNIT   9 AT TIME STEP186, STRESS PERIOD   1
 UBDSV1 SAVING "FLOW FRONT FACE " ON UNIT   9 AT TIME STEP186, STRESS PERIOD   1
 UBDSV4 SAVING "   RIVER LEAKAGE" ON UNIT   9 AT TIME STEP186, STRESS PERIOD   1
 UBDSV3 SAVING "        RECHARGE" ON UNIT   9 AT TIME STEP186, STRESS PERIOD   1

 HEAD WILL BE SAVED ON UNIT   37 AT END OF TIME STEP  186, STRESS PERIOD    1

 DRAWDOWN WILL BE SAVED ON UNIT   38 AT END OF TIME STEP  186, STRESS PERIOD    1
1
  VOLUMETRIC BUDGET FOR ENTIRE MODEL AT END OF TIME STEP  186, STRESS PERIOD   1
  ------------------------------------------------------------------------------

     CUMULATIVE VOLUMES      L**3       RATES FOR THIS TIME STEP      L**3/T
     ------------------                 ------------------------

           IN:                                      IN:
           ---                                      ---
             STORAGE =   164940896.0000               STORAGE =      822179.5625
       CONSTANT HEAD =           0.0000         CONSTANT HEAD =           0.0000
       RIVER LEAKAGE =   611475776.0000         RIVER LEAKAGE =     9947830.0000
            RECHARGE =      180673.8594              RECHARGE =           6.1710

            TOTAL IN =   776597376.0000              TOTAL IN =    10770016.0000

          OUT:                                     OUT:
          ----                                     ----
             STORAGE =   773912320.0000               STORAGE =    10722766.0000
       CONSTANT HEAD =           0.0000         CONSTANT HEAD =           0.0000
       RIVER LEAKAGE =     2867545.0000         RIVER LEAKAGE =       50454.4219
            RECHARGE =           0.0000              RECHARGE =           0.0000

           TOTAL OUT =   776779840.0000             TOTAL OUT =    10773220.0000

            IN - OUT =     -182464.0000              IN - OUT =       -3204.0000

 PERCENT DISCREPANCY =          -0.02     PERCENT DISCREPANCY =          -0.03






         TIME SUMMARY AT END OF TIME STEP  186 IN STRESS PERIOD    1
                    SECONDS     MINUTES      HOURS       DAYS        YEARS
                    -----------------------------------------------------------
   TIME STEP LENGTH  86400.      1440.0      24.000      1.0000     2.73785E-03
 STRESS PERIOD TIME 1.60704E+07 2.67840E+05  4464.0      186.00     0.50924    
         TOTAL TIME 1.60704E+07 2.67840E+05  4464.0      186.00     0.50924    
1
 
 SOLVING FOR HEAD 
                                                   Max.-Head-Change                        Max.-Flux-Residual
  Residual-Control   Outer-Iter.   Inner-Iter.     Column Row Layer    Max.-Head-Change    Column Row Layer    Max.-Flux-Residual            L2-New               L2-Old           Solver-Max-Delh
          0                 1           2            63   17     1       0.5850010763E+00      19  122    1       0.2704023347E+06      0.1150975524E+07      0.3538089469E+03      0.5850010763E+00
          0                 2           2            54   28     1       0.5189828725E+02      33   90    1       0.9506024452E+05      0.1472503687E+06      0.1150975524E+07      0.5189828725E+02
          1                 2           0            54   28     1       0.3632880045E+02      54   28    1      -0.6097508565E+06      0.6098507126E+06      0.1472503687E+06      0.5189828725E+02
          2                 2           0            54   28     1       0.2543015988E+02      54   28    1      -0.4242194319E+06      0.4264398971E+06      0.6098507126E+06      0.5189828725E+02
          3                 2           0            54   28     1       0.1780111162E+02      54   28    1      -0.2943474369E+06      0.3035661523E+06      0.4264398971E+06      0.5189828725E+02
          4                 2           0            54   28     1       0.1246077792E+02      54   28    1      -0.2034370419E+06      0.2249534402E+06      0.3035661523E+06      0.5189828725E+02
          5                 2           0            54   28     1       0.8722544395E+01      54   28    1      -0.1397997665E+06      0.1786844011E+06      0.2249534402E+06      0.5189828725E+02
          0                 3           2            54   28     1      -0.7593852880E+01      54   28    1      -0.9525367445E+05      0.1547735097E+06      0.1786844011E+06     -0.7593852880E+01
          0                 4           2            54   28     1      -0.3796964484E+00      33   90    1      -0.7748373400E+04      0.1024219974E+05      0.1547735097E+06     -0.3796964484E+00
          0                 5           2            28   66     1       0.7793936861E-01      33   90    1      -0.3874184813E+03      0.5120478747E+03      0.1024219974E+05      0.7793936861E-01

    ------------------------------------------------
       NWT REQUIRED            5 OUTER ITERATIONS 
       AND A TOTAL OF         10 INNER ITERATIONS.
    ------------------------------------------------

 OUTPUT CONTROL FOR STRESS PERIOD    1   TIME STEP  187
    SAVE HEAD FOR ALL LAYERS
    SAVE DRAWDOWN FOR ALL LAYERS
    SAVE BUDGET
    PRINT BUDGET
 UBDSV1 SAVING "         STORAGE" ON UNIT   9 AT TIME STEP187, STRESS PERIOD   1
 UBDSV2 SAVING "   CONSTANT HEAD" ON UNIT   9 AT TIME STEP187, STRESS PERIOD   1
 UBDSV1 SAVING "FLOW RIGHT FACE " ON UNIT   9 AT TIME STEP187, STRESS PERIOD   1
 UBDSV1 SAVING "FLOW FRONT FACE " ON UNIT   9 AT TIME STEP187, STRESS PERIOD   1
 UBDSV4 SAVING "   RIVER LEAKAGE" ON UNIT   9 AT TIME STEP187, STRESS PERIOD   1
 UBDSV3 SAVING "        RECHARGE" ON UNIT   9 AT TIME STEP187, STRESS PERIOD   1

 HEAD WILL BE SAVED ON UNIT   37 AT END OF TIME STEP  187, STRESS PERIOD    1

 DRAWDOWN WILL BE SAVED ON UNIT   38 AT END OF TIME STEP  187, STRESS PERIOD    1
1
  VOLUMETRIC BUDGET FOR ENTIRE MODEL AT END OF TIME STEP  187, STRESS PERIOD   1
  ------------------------------------------------------------------------------

     CUMULATIVE VOLUMES      L**3       RATES FOR THIS TIME STEP      L**3/T
     ------------------                 ------------------------

           IN:                                      IN:
           ---                                      ---
             STORAGE =   165762112.0000               STORAGE =      821214.4375
       CONSTANT HEAD =           0.0000         CONSTANT HEAD =           0.0000
       RIVER LEAKAGE =   621736128.0000         RIVER LEAKAGE =    10260349.0000
            RECHARGE =      180681.0625              RECHARGE =           7.2032

            TOTAL IN =   787678912.0000              TOTAL IN =    11081570.0000

          OUT:                                     OUT:
          ----                                     ----
             STORAGE =   784936896.0000               STORAGE =    11024568.0000
       CONSTANT HEAD =           0.0000         CONSTANT HEAD =           0.0000
       RIVER LEAKAGE =     2924686.5000         RIVER LEAKAGE =       57141.5625
            RECHARGE =           0.0000              RECHARGE =           0.0000

           TOTAL OUT =   787861568.0000             TOTAL OUT =    11081710.0000

            IN - OUT =     -182656.0000              IN - OUT =        -140.0000

 PERCENT DISCREPANCY =          -0.02     PERCENT DISCREPANCY =          -0.00






         TIME SUMMARY AT END OF TIME STEP  187 IN STRESS PERIOD    1
                    SECONDS     MINUTES      HOURS       DAYS        YEARS
                    -----------------------------------------------------------
   TIME STEP LENGTH  86400.      1440.0      24.000      1.0000     2.73785E-03
 STRESS PERIOD TIME 1.61568E+07 2.69280E+05  4488.0      187.00     0.51198    
         TOTAL TIME 1.61568E+07 2.69280E+05  4488.0      187.00     0.51198    
1
 
 SOLVING FOR HEAD 
                                                   Max.-Head-Change                        Max.-Flux-Residual
  Residual-Control   Outer-Iter.   Inner-Iter.     Column Row Layer    Max.-Head-Change    Column Row Layer    Max.-Flux-Residual            L2-New               L2-Old           Solver-Max-Delh
          0                 1           2            38   71     1      -0.1213962663E+01      26  115    1      -0.3243476865E+06      0.9803863598E+06      0.2566535266E+02     -0.1213962663E+01
          0                 2           2            38   71     1       0.1048422366E+00      26  115    1       0.3243485278E+05      0.9803938684E+05      0.9803863598E+06      0.1048422366E+00
          0                 3           2            69   15     1       0.7931703902E-01      26  115    1       0.1621742441E+04      0.4901976046E+04      0.9803938684E+05      0.7931703902E-01

    ------------------------------------------------
       NWT REQUIRED            3 OUTER ITERATIONS 
       AND A TOTAL OF          6 INNER ITERATIONS.
    ------------------------------------------------

 OUTPUT CONTROL FOR STRESS PERIOD    1   TIME STEP  188
    SAVE HEAD FOR ALL LAYERS
    SAVE DRAWDOWN FOR ALL LAYERS
    SAVE BUDGET
    PRINT BUDGET
 UBDSV1 SAVING "         STORAGE" ON UNIT   9 AT TIME STEP188, STRESS PERIOD   1
 UBDSV2 SAVING "   CONSTANT HEAD" ON UNIT   9 AT TIME STEP188, STRESS PERIOD   1
 UBDSV1 SAVING "FLOW RIGHT FACE " ON UNIT   9 AT TIME STEP188, STRESS PERIOD   1
 UBDSV1 SAVING "FLOW FRONT FACE " ON UNIT   9 AT TIME STEP188, STRESS PERIOD   1
 UBDSV4 SAVING "   RIVER LEAKAGE" ON UNIT   9 AT TIME STEP188, STRESS PERIOD   1
 UBDSV3 SAVING "        RECHARGE" ON UNIT   9 AT TIME STEP188, STRESS PERIOD   1

 HEAD WILL BE SAVED ON UNIT   37 AT END OF TIME STEP  188, STRESS PERIOD    1

 DRAWDOWN WILL BE SAVED ON UNIT   38 AT END OF TIME STEP  188, STRESS PERIOD    1
1
  VOLUMETRIC BUDGET FOR ENTIRE MODEL AT END OF TIME STEP  188, STRESS PERIOD   1
  ------------------------------------------------------------------------------

     CUMULATIVE VOLUMES      L**3       RATES FOR THIS TIME STEP      L**3/T
     ------------------                 ------------------------

           IN:                                      IN:
           ---                                      ---
             STORAGE =   166592112.0000               STORAGE =      830007.9375
       CONSTANT HEAD =           0.0000         CONSTANT HEAD =           0.0000
       RIVER LEAKAGE =   625476544.0000         RIVER LEAKAGE =     3740405.5000
            RECHARGE =      180687.7812              RECHARGE =           6.7190

            TOTAL IN =   792249344.0000              TOTAL IN =     4570420.0000

          OUT:                                     OUT:
          ----                                     ----
             STORAGE =   789439552.0000               STORAGE =     4502630.0000
       CONSTANT HEAD =           0.0000         CONSTANT HEAD =           0.0000
       RIVER LEAKAGE =     2991944.2500         RIVER LEAKAGE =       67257.7344
            RECHARGE =           0.0000              RECHARGE =           0.0000

           TOTAL OUT =   792431488.0000             TOTAL OUT =     4569887.5000

            IN - OUT =     -182144.0000              IN - OUT =         532.5000

 PERCENT DISCREPANCY =          -0.02     PERCENT DISCREPANCY =           0.01






         TIME SUMMARY AT END OF TIME STEP  188 IN STRESS PERIOD    1
                    SECONDS     MINUTES      HOURS       DAYS        YEARS
                    -----------------------------------------------------------
   TIME STEP LENGTH  86400.      1440.0      24.000      1.0000     2.73785E-03
 STRESS PERIOD TIME 1.62432E+07 2.70720E+05  4512.0      188.00     0.51472    
         TOTAL TIME 1.62432E+07 2.70720E+05  4512.0      188.00     0.51472    
1
 
 SOLVING FOR HEAD 
                                                   Max.-Head-Change                        Max.-Flux-Residual
  Residual-Control   Outer-Iter.   Inner-Iter.     Column Row Layer    Max.-Head-Change    Column Row Layer    Max.-Flux-Residual            L2-New               L2-Old           Solver-Max-Delh
          0                 1           2            38   71     1       0.1116411179E+01      34   98    1       0.5554853436E+06      0.1556238671E+07      0.2450573010E+03      0.1116411179E+01
          0                 2           2            38   71     1      -0.9641733991E-01      34   98    1      -0.5555437788E+05      0.1556287573E+06      0.1556238671E+07     -0.9641733991E-01
          0                 3           2            69   15     1       0.8398224372E-01      34   98    1      -0.2777761073E+04      0.7781470615E+04      0.1556287573E+06      0.8398224372E-01

    ------------------------------------------------
       NWT REQUIRED            3 OUTER ITERATIONS 
       AND A TOTAL OF          6 INNER ITERATIONS.
    ------------------------------------------------

 OUTPUT CONTROL FOR STRESS PERIOD    1   TIME STEP  189
    SAVE HEAD FOR ALL LAYERS
    SAVE DRAWDOWN FOR ALL LAYERS
    SAVE BUDGET
    PRINT BUDGET
 UBDSV1 SAVING "         STORAGE" ON UNIT   9 AT TIME STEP189, STRESS PERIOD   1
 UBDSV2 SAVING "   CONSTANT HEAD" ON UNIT   9 AT TIME STEP189, STRESS PERIOD   1
 UBDSV1 SAVING "FLOW RIGHT FACE " ON UNIT   9 AT TIME STEP189, STRESS PERIOD   1
 UBDSV1 SAVING "FLOW FRONT FACE " ON UNIT   9 AT TIME STEP189, STRESS PERIOD   1
 UBDSV4 SAVING "   RIVER LEAKAGE" ON UNIT   9 AT TIME STEP189, STRESS PERIOD   1
 UBDSV3 SAVING "        RECHARGE" ON UNIT   9 AT TIME STEP189, STRESS PERIOD   1

 HEAD WILL BE SAVED ON UNIT   37 AT END OF TIME STEP  189, STRESS PERIOD    1

 DRAWDOWN WILL BE SAVED ON UNIT   38 AT END OF TIME STEP  189, STRESS PERIOD    1
1
  VOLUMETRIC BUDGET FOR ENTIRE MODEL AT END OF TIME STEP  189, STRESS PERIOD   1
  ------------------------------------------------------------------------------

     CUMULATIVE VOLUMES      L**3       RATES FOR THIS TIME STEP      L**3/T
     ------------------                 ------------------------

           IN:                                      IN:
           ---                                      ---
             STORAGE =   167410816.0000               STORAGE =      818701.9375
       CONSTANT HEAD =           0.0000         CONSTANT HEAD =           0.0000
       RIVER LEAKAGE =   637558912.0000         RIVER LEAKAGE =    12082350.0000
            RECHARGE =      180694.6719              RECHARGE =           6.8837

            TOTAL IN =   805150400.0000              TOTAL IN =    12901059.0000

          OUT:                                     OUT:
          ----                                     ----
             STORAGE =   802288448.0000               STORAGE =    12848880.0000
       CONSTANT HEAD =           0.0000         CONSTANT HEAD =           0.0000
       RIVER LEAKAGE =     3048394.7500         RIVER LEAKAGE =       56450.3867
            RECHARGE =           0.0000              RECHARGE =           0.0000

           TOTAL OUT =   805336832.0000             TOTAL OUT =    12905330.0000

            IN - OUT =     -186432.0000              IN - OUT =       -4271.0000

 PERCENT DISCREPANCY =          -0.02     PERCENT DISCREPANCY =          -0.03






         TIME SUMMARY AT END OF TIME STEP  189 IN STRESS PERIOD    1
                    SECONDS     MINUTES      HOURS       DAYS        YEARS
                    -----------------------------------------------------------
   TIME STEP LENGTH  86400.      1440.0      24.000      1.0000     2.73785E-03
 STRESS PERIOD TIME 1.63296E+07 2.72160E+05  4536.0      189.00     0.51745    
         TOTAL TIME 1.63296E+07 2.72160E+05  4536.0      189.00     0.51745    
1
 
 SOLVING FOR HEAD 
                                                   Max.-Head-Change                        Max.-Flux-Residual
  Residual-Control   Outer-Iter.   Inner-Iter.     Column Row Layer    Max.-Head-Change    Column Row Layer    Max.-Flux-Residual            L2-New               L2-Old           Solver-Max-Delh
          0                 1           2            49   35     1       0.4543677152E+00      19  122    1       0.2687061297E+06      0.1119403038E+07      0.3890005378E+03      0.4543677152E+00
          0                 2           2             5  129     1       0.3646463468E+03       5  129    1       0.8567862575E+05      0.1563503756E+06      0.1119403038E+07      0.3646463468E+03
          1                 2           0             5  129     1       0.2552524384E+03       5  129    1      -0.8082203331E+08      0.8589030260E+08      0.1563503756E+06      0.3646463468E+03
          2                 2           0             5  129     1       0.1786767038E+03       5  129    1      -0.5654938537E+08      0.6009186467E+08      0.8589030260E+08      0.3646463468E+03
          3                 2           0             5  129     1       0.1250736906E+03       5  129    1      -0.3955853210E+08      0.4203285481E+08      0.6009186467E+08      0.3646463468E+03
          4                 2           0             5  129     1       0.8755158189E+02       5  129    1      -0.2766493502E+08      0.2939155217E+08      0.4203285481E+08      0.3646463468E+03
          5                 2           0             5  129     1       0.6128610628E+02       5  129    1      -0.1933941720E+08      0.2054268185E+08      0.2939155217E+08      0.3646463468E+03
          6                 2           0             5  129     1       0.4290027367E+02       5  129    1      -0.1351155483E+08      0.1434851890E+08      0.2054268185E+08      0.3646463468E+03
          7                 2           0             5  129     1       0.3003019106E+02       5  129    1      -0.9432051235E+07      0.1001269873E+08      0.1434851890E+08      0.3646463468E+03
          8                 2           0             5  129     1       0.2102113338E+02       5  129    1      -0.6576398769E+07      0.6977775185E+07      0.1001269873E+08      0.3646463468E+03
                                                   Max.-Head-Change                        Max.-Flux-Residual
  Residual-Control   Outer-Iter.   Inner-Iter.     Column Row Layer    Max.-Head-Change    Column Row Layer    Max.-Flux-Residual            L2-New               L2-Old           Solver-Max-Delh
          9                 2           0             5  129     1       0.1471479312E+02       5  129    1      -0.4577587699E+07      0.4853692780E+07      0.6977775185E+07      0.3646463468E+03
         10                 2           0             5  129     1       0.1030035501E+02       5  129    1      -0.3178494910E+07      0.3367240743E+07      0.4853692780E+07      0.3646463468E+03
         11                 2           0             5  129     1       0.7210248381E+01       5  129    1      -0.2199129977E+07      0.2327218766E+07      0.3367240743E+07      0.3646463468E+03
         12                 2           0             5  129     1       0.5047173781E+01       5  129    1      -0.1513558179E+07      0.1599924081E+07      0.2327218766E+07      0.3646463468E+03
         13                 2           0             5  129     1       0.3533021587E+01       5  129    1      -0.1033646627E+07      0.1091920369E+07      0.1599924081E+07      0.3646463468E+03
         14                 2           0             5  129     1       0.2473115068E+01       5  129    1      -0.6977085490E+06      0.7380395370E+06      0.1091920369E+07      0.3646463468E+03
         15                 2           0             5  129     1       0.1731180518E+01       5  129    1      -0.4625518994E+06      0.4930661790E+06      0.7380395370E+06      0.3646463468E+03
         16                 2           0             5  129     1       0.1211826342E+01       5  129    1      -0.2979422480E+06      0.3261089595E+06      0.4930661790E+06      0.3646463468E+03
         17                 2           0             5  129     1       0.8482784251E+00       5  129    1      -0.1827154942E+06      0.2168843353E+06      0.3261089595E+06      0.3646463468E+03
          0                 3           2             5  129     1      -0.4369984103E+00       5  129    1      -0.1020567681E+06      0.1528828525E+06      0.2168843353E+06     -0.4369984103E+00
                                                   Max.-Head-Change                        Max.-Flux-Residual
  Residual-Control   Outer-Iter.   Inner-Iter.     Column Row Layer    Max.-Head-Change    Column Row Layer    Max.-Flux-Residual            L2-New               L2-Old           Solver-Max-Delh
          0                 4           2            69   15     1       0.8616734594E-01       5  129    1      -0.5102846498E+04      0.9061225698E+04      0.1528828525E+06      0.8616734594E-01
          0                 5           2            69   15     1       0.8576826218E-01      19  122    1       0.7559533329E+03      0.8551627418E+03      0.9061225698E+04      0.8576826218E-01

    ------------------------------------------------
       NWT REQUIRED            5 OUTER ITERATIONS 
       AND A TOTAL OF         10 INNER ITERATIONS.
    ------------------------------------------------

 OUTPUT CONTROL FOR STRESS PERIOD    1   TIME STEP  190
    SAVE HEAD FOR ALL LAYERS
    SAVE DRAWDOWN FOR ALL LAYERS
    SAVE BUDGET
    PRINT BUDGET
 UBDSV1 SAVING "         STORAGE" ON UNIT   9 AT TIME STEP190, STRESS PERIOD   1
 UBDSV2 SAVING "   CONSTANT HEAD" ON UNIT   9 AT TIME STEP190, STRESS PERIOD   1
 UBDSV1 SAVING "FLOW RIGHT FACE " ON UNIT   9 AT TIME STEP190, STRESS PERIOD   1
 UBDSV1 SAVING "FLOW FRONT FACE " ON UNIT   9 AT TIME STEP190, STRESS PERIOD   1
 UBDSV4 SAVING "   RIVER LEAKAGE" ON UNIT   9 AT TIME STEP190, STRESS PERIOD   1
 UBDSV3 SAVING "        RECHARGE" ON UNIT   9 AT TIME STEP190, STRESS PERIOD   1

 HEAD WILL BE SAVED ON UNIT   37 AT END OF TIME STEP  190, STRESS PERIOD    1

 DRAWDOWN WILL BE SAVED ON UNIT   38 AT END OF TIME STEP  190, STRESS PERIOD    1
1
  VOLUMETRIC BUDGET FOR ENTIRE MODEL AT END OF TIME STEP  190, STRESS PERIOD   1
  ------------------------------------------------------------------------------

     CUMULATIVE VOLUMES      L**3       RATES FOR THIS TIME STEP      L**3/T
     ------------------                 ------------------------

           IN:                                      IN:
           ---                                      ---
             STORAGE =   168230176.0000               STORAGE =      819359.4375
       CONSTANT HEAD =           0.0000         CONSTANT HEAD =           0.0000
       RIVER LEAKAGE =   647586688.0000         RIVER LEAKAGE =    10027801.0000
            RECHARGE =      180703.5156              RECHARGE =           8.8425

            TOTAL IN =   815997568.0000              TOTAL IN =    10847169.0000

          OUT:                                     OUT:
          ----                                     ----
             STORAGE =   813077056.0000               STORAGE =    10788609.0000
       CONSTANT HEAD =           0.0000         CONSTANT HEAD =           0.0000
       RIVER LEAKAGE =     3106960.7500         RIVER LEAKAGE =       58566.0391
            RECHARGE =           0.0000              RECHARGE =           0.0000

           TOTAL OUT =   816184000.0000             TOTAL OUT =    10847175.0000

            IN - OUT =     -186432.0000              IN - OUT =          -6.0000

 PERCENT DISCREPANCY =          -0.02     PERCENT DISCREPANCY =          -0.00






         TIME SUMMARY AT END OF TIME STEP  190 IN STRESS PERIOD    1
                    SECONDS     MINUTES      HOURS       DAYS        YEARS
                    -----------------------------------------------------------
   TIME STEP LENGTH  86400.      1440.0      24.000      1.0000     2.73785E-03
 STRESS PERIOD TIME 1.64160E+07 2.73600E+05  4560.0      190.00     0.52019    
         TOTAL TIME 1.64160E+07 2.73600E+05  4560.0      190.00     0.52019    
1
 
 SOLVING FOR HEAD 
                                                   Max.-Head-Change                        Max.-Flux-Residual
  Residual-Control   Outer-Iter.   Inner-Iter.     Column Row Layer    Max.-Head-Change    Column Row Layer    Max.-Flux-Residual            L2-New               L2-Old           Solver-Max-Delh
          0                 1           2            38   71     1      -0.8908888848E+00      26  115    1      -0.2551098052E+06      0.8505313990E+06      0.1356602944E+03     -0.8908888848E+00
          0                 2           2            19  122     1       0.1428093733E+00      19  122    1       0.9438059998E+05      0.1266333264E+06      0.8505313990E+06      0.1428093733E+00
          0                 3           2            69   15     1       0.8787882419E-01      19  122    1      -0.9437967269E+04      0.1036180217E+05      0.1266333264E+06      0.8787882419E-01
          0                 4           2            69   15     1       0.8745890562E-01      19  122    1      -0.4718981245E+03      0.5180766172E+03      0.1036180217E+05      0.8745890562E-01

    ------------------------------------------------
       NWT REQUIRED            4 OUTER ITERATIONS 
       AND A TOTAL OF          8 INNER ITERATIONS.
    ------------------------------------------------

 OUTPUT CONTROL FOR STRESS PERIOD    1   TIME STEP  191
    SAVE HEAD FOR ALL LAYERS
    SAVE DRAWDOWN FOR ALL LAYERS
    SAVE BUDGET
    PRINT BUDGET
 UBDSV1 SAVING "         STORAGE" ON UNIT   9 AT TIME STEP191, STRESS PERIOD   1
 UBDSV2 SAVING "   CONSTANT HEAD" ON UNIT   9 AT TIME STEP191, STRESS PERIOD   1
 UBDSV1 SAVING "FLOW RIGHT FACE " ON UNIT   9 AT TIME STEP191, STRESS PERIOD   1
 UBDSV1 SAVING "FLOW FRONT FACE " ON UNIT   9 AT TIME STEP191, STRESS PERIOD   1
 UBDSV4 SAVING "   RIVER LEAKAGE" ON UNIT   9 AT TIME STEP191, STRESS PERIOD   1
 UBDSV3 SAVING "        RECHARGE" ON UNIT   9 AT TIME STEP191, STRESS PERIOD   1

 HEAD WILL BE SAVED ON UNIT   37 AT END OF TIME STEP  191, STRESS PERIOD    1

 DRAWDOWN WILL BE SAVED ON UNIT   38 AT END OF TIME STEP  191, STRESS PERIOD    1
1
  VOLUMETRIC BUDGET FOR ENTIRE MODEL AT END OF TIME STEP  191, STRESS PERIOD   1
  ------------------------------------------------------------------------------

     CUMULATIVE VOLUMES      L**3       RATES FOR THIS TIME STEP      L**3/T
     ------------------                 ------------------------

           IN:                                      IN:
           ---                                      ---
             STORAGE =   169054512.0000               STORAGE =      824333.5625
       CONSTANT HEAD =           0.0000         CONSTANT HEAD =           0.0000
       RIVER LEAKAGE =   652666176.0000         RIVER LEAKAGE =     5079483.0000
            RECHARGE =      180712.8594              RECHARGE =           9.3509

            TOTAL IN =   821901440.0000              TOTAL IN =     5903826.0000

          OUT:                                     OUT:
          ----                                     ----
             STORAGE =   818913088.0000               STORAGE =     5836055.0000
       CONSTANT HEAD =           0.0000         CONSTANT HEAD =           0.0000
       RIVER LEAKAGE =     3174765.2500         RIVER LEAKAGE =       67804.5859
            RECHARGE =           0.0000              RECHARGE =           0.0000

           TOTAL OUT =   822087872.0000             TOTAL OUT =     5903859.5000

            IN - OUT =     -186432.0000              IN - OUT =         -33.5000

 PERCENT DISCREPANCY =          -0.02     PERCENT DISCREPANCY =          -0.00






         TIME SUMMARY AT END OF TIME STEP  191 IN STRESS PERIOD    1
                    SECONDS     MINUTES      HOURS       DAYS        YEARS
                    -----------------------------------------------------------
   TIME STEP LENGTH  86400.      1440.0      24.000      1.0000     2.73785E-03
 STRESS PERIOD TIME 1.65024E+07 2.75040E+05  4584.0      191.00     0.52293    
         TOTAL TIME 1.65024E+07 2.75040E+05  4584.0      191.00     0.52293    
1
 
 SOLVING FOR HEAD 
                                                   Max.-Head-Change                        Max.-Flux-Residual
  Residual-Control   Outer-Iter.   Inner-Iter.     Column Row Layer    Max.-Head-Change    Column Row Layer    Max.-Flux-Residual            L2-New               L2-Old           Solver-Max-Delh
          0                 1           2            49   35     1       0.4543314653E+00      13  125    1       0.1325465159E+06      0.5620602227E+06      0.2597372539E+02      0.4543314653E+00
          0                 2           2            27  115     1       0.9243064528E+02      34  105    1       0.9104063310E+05      0.1136261167E+06      0.5620602227E+06      0.9243064528E+02
          1                 2           0            27  115     1       0.6470145059E+02      27  115    1      -0.1145204714E+08      0.1145205238E+08      0.1136261167E+06      0.9243064528E+02
          2                 2           0            27  115     1       0.4529101464E+02      27  115    1      -0.8002854610E+07      0.8002904574E+07      0.1145205238E+08      0.9243064528E+02
          3                 2           0            27  115     1       0.3170370971E+02      27  115    1      -0.5588419880E+07      0.5588661777E+07      0.8002904574E+07      0.9243064528E+02
          4                 2           0            27  115     1       0.2219259642E+02      27  115    1      -0.3898377508E+07      0.3898984912E+07      0.5588661777E+07      0.9243064528E+02
          5                 2           0            27  115     1       0.1553481723E+02      27  115    1      -0.2715964148E+07      0.2717160565E+07      0.3898984912E+07      0.9243064528E+02
          6                 2           0            27  115     1       0.1087437187E+02      27  115    1      -0.1888474379E+07      0.1890565520E+07      0.2717160565E+07      0.9243064528E+02
          7                 2           0            27  115     1       0.7612060183E+01      27  115    1      -0.1309261746E+07      0.1312681277E+07      0.1890565520E+07      0.9243064528E+02
          8                 2           0            27  115     1       0.5328442037E+01      27  115    1      -0.9038197267E+06      0.9091976236E+06      0.1312681277E+07      0.9243064528E+02
                                                   Max.-Head-Change                        Max.-Flux-Residual
  Residual-Control   Outer-Iter.   Inner-Iter.     Column Row Layer    Max.-Head-Change    Column Row Layer    Max.-Flux-Residual            L2-New               L2-Old           Solver-Max-Delh
          9                 2           0            27  115     1       0.3729909363E+01      27  115    1      -0.6200103234E+06      0.6282768234E+06      0.9091976236E+06      0.9243064528E+02
         10                 2           0            27  115     1       0.2610936509E+01      27  115    1      -0.4213437472E+06      0.4338862466E+06      0.6282768234E+06      0.9243064528E+02
         11                 2           0            27  115     1       0.1827655525E+01      27  115    1      -0.2822771475E+06      0.3011598572E+06      0.4338862466E+06      0.9243064528E+02
         12                 2           0            27  115     1       0.1279358846E+01      27  115    1      -0.1849305300E+06      0.2131234165E+06      0.3011598572E+06      0.9243064528E+02
         13                 2           0            27  115     1       0.8955511769E+00      27  115    1      -0.1167878992E+06      0.1581348452E+06      0.2131234165E+06      0.9243064528E+02
         14                 2           0            27  115     1       0.6268858132E+00      34  105    1       0.9007034140E+05      0.1274455940E+06      0.1581348452E+06      0.9243064528E+02
          0                 3           2            59   32     1       0.6986765616E+00      34  105    1       0.9036142892E+05      0.1132044774E+06      0.1274455940E+06      0.6986765616E+00
          0                 4           2            69   15     1       0.8949068074E-01      34  105    1      -0.9036128088E+04      0.9831982440E+04      0.1132044774E+06      0.8949068074E-01

    ------------------------------------------------
       NWT REQUIRED            4 OUTER ITERATIONS 
       AND A TOTAL OF          8 INNER ITERATIONS.
    ------------------------------------------------

 OUTPUT CONTROL FOR STRESS PERIOD    1   TIME STEP  192
    SAVE HEAD FOR ALL LAYERS
    SAVE DRAWDOWN FOR ALL LAYERS
    SAVE BUDGET
    PRINT BUDGET
 UBDSV1 SAVING "         STORAGE" ON UNIT   9 AT TIME STEP192, STRESS PERIOD   1
 UBDSV2 SAVING "   CONSTANT HEAD" ON UNIT   9 AT TIME STEP192, STRESS PERIOD   1
 UBDSV1 SAVING "FLOW RIGHT FACE " ON UNIT   9 AT TIME STEP192, STRESS PERIOD   1
 UBDSV1 SAVING "FLOW FRONT FACE " ON UNIT   9 AT TIME STEP192, STRESS PERIOD   1
 UBDSV4 SAVING "   RIVER LEAKAGE" ON UNIT   9 AT TIME STEP192, STRESS PERIOD   1
 UBDSV3 SAVING "        RECHARGE" ON UNIT   9 AT TIME STEP192, STRESS PERIOD   1

 HEAD WILL BE SAVED ON UNIT   37 AT END OF TIME STEP  192, STRESS PERIOD    1

 DRAWDOWN WILL BE SAVED ON UNIT   38 AT END OF TIME STEP  192, STRESS PERIOD    1
1
  VOLUMETRIC BUDGET FOR ENTIRE MODEL AT END OF TIME STEP  192, STRESS PERIOD   1
  ------------------------------------------------------------------------------

     CUMULATIVE VOLUMES      L**3       RATES FOR THIS TIME STEP      L**3/T
     ------------------                 ------------------------

           IN:                                      IN:
           ---                                      ---
             STORAGE =   169872976.0000               STORAGE =      818456.1250
       CONSTANT HEAD =           0.0000         CONSTANT HEAD =           0.0000
       RIVER LEAKAGE =   657832192.0000         RIVER LEAKAGE =     5166044.5000
            RECHARGE =      180723.8594              RECHARGE =          10.9975

            TOTAL IN =   827885888.0000              TOTAL IN =     5984511.5000

          OUT:                                     OUT:
          ----                                     ----
             STORAGE =   824836928.0000               STORAGE =     5923849.5000
       CONSTANT HEAD =           0.0000         CONSTANT HEAD =           0.0000
       RIVER LEAKAGE =     3237368.5000         RIVER LEAKAGE =       62603.3438
            RECHARGE =           0.0000              RECHARGE =           0.0000

           TOTAL OUT =   828074304.0000             TOTAL OUT =     5986453.0000

            IN - OUT =     -188416.0000              IN - OUT =       -1941.5000

 PERCENT DISCREPANCY =          -0.02     PERCENT DISCREPANCY =          -0.03






         TIME SUMMARY AT END OF TIME STEP  192 IN STRESS PERIOD    1
                    SECONDS     MINUTES      HOURS       DAYS        YEARS
                    -----------------------------------------------------------
   TIME STEP LENGTH  86400.      1440.0      24.000      1.0000     2.73785E-03
 STRESS PERIOD TIME 1.65888E+07 2.76480E+05  4608.0      192.00     0.52567    
         TOTAL TIME 1.65888E+07 2.76480E+05  4608.0      192.00     0.52567    
1
 
 SOLVING FOR HEAD 
                                                   Max.-Head-Change                        Max.-Flux-Residual
  Residual-Control   Outer-Iter.   Inner-Iter.     Column Row Layer    Max.-Head-Change    Column Row Layer    Max.-Flux-Residual            L2-New               L2-Old           Solver-Max-Delh
          0                 1           2            58   36     1       0.3738276336E+00      13  125    1       0.1403818081E+06      0.5879491790E+06      0.4915848921E+03      0.3738276336E+00
          0                 2           2            23  118     1       0.5059941753E+02      23  118    1       0.2960357746E+05      0.6537386191E+05      0.5879491790E+06      0.5059941753E+02
          1                 2           0            23  118     1       0.3541959167E+02      23  118    1      -0.1137396829E+08      0.1137396880E+08      0.6537386191E+05      0.5059941753E+02
          2                 2           0            23  118     1       0.2479371374E+02      23  118    1      -0.7948364881E+07      0.7948388869E+07      0.1137396880E+08      0.5059941753E+02
          3                 2           0            23  118     1       0.1735559933E+02      23  118    1      -0.5550442535E+07      0.5550529936E+07      0.7948388869E+07      0.5059941753E+02
          4                 2           0            23  118     1       0.1214891932E+02      23  118    1      -0.3872095446E+07      0.3872294797E+07      0.5550529936E+07      0.5059941753E+02
          5                 2           0            23  118     1       0.8504243380E+01      23  118    1      -0.2697392928E+07      0.2697768099E+07      0.3872294797E+07      0.5059941753E+02
          6                 2           0            23  118     1       0.5952970264E+01      23  118    1      -0.1875065757E+07      0.1875705343E+07      0.2697768099E+07      0.5059941753E+02
          7                 2           0            23  118     1       0.4167079114E+01      23  118    1      -0.1299430727E+07      0.1300461645E+07      0.1875705343E+07      0.5059941753E+02
          8                 2           0            23  118     1       0.2916955330E+01      23  118    1      -0.8964862223E+06      0.8980946693E+06      0.1300461645E+07      0.5059941753E+02
                                                   Max.-Head-Change                        Max.-Flux-Residual
  Residual-Control   Outer-Iter.   Inner-Iter.     Column Row Layer    Max.-Head-Change    Column Row Layer    Max.-Flux-Residual            L2-New               L2-Old           Solver-Max-Delh
          9                 2           0            23  118     1       0.2041868696E+01      23  118    1      -0.6144250783E+06      0.6168902343E+06      0.8980946693E+06      0.5059941753E+02
         10                 2           0            23  118     1       0.1429308063E+01      23  118    1      -0.4169822831E+06      0.4207327702E+06      0.6168902343E+06      0.5059941753E+02
         11                 2           0            23  118     1       0.1000515627E+01      23  118    1      -0.2787723300E+06      0.2844845544E+06      0.4207327702E+06      0.5059941753E+02
         12                 2           0            23  118     1       0.7003609271E+00      23  118    1      -0.1820253649E+06      0.1907987038E+06      0.2844845544E+06      0.5059941753E+02
         13                 2           0            23  118     1       0.4902526406E+00      23  118    1      -0.1143024908E+06      0.1279595909E+06      0.1907987038E+06      0.5059941753E+02
         14                 2           0            23  118     1       0.3431768426E+00      23  118    1      -0.6689647991E+05      0.8837558981E+05      0.1279595909E+06      0.5059941753E+02
          0                 3           2            23  118     1      -0.1419474256E+00      23  118    1      -0.3371227289E+05      0.6700926786E+05      0.8837558981E+05     -0.1419474256E+00
          0                 4           2            69   15     1       0.9145190328E-01      23  118    1      -0.1685614601E+04      0.3349970315E+04      0.6700926786E+05      0.9145190328E-01

    ------------------------------------------------
       NWT REQUIRED            4 OUTER ITERATIONS 
       AND A TOTAL OF          8 INNER ITERATIONS.
    ------------------------------------------------

 OUTPUT CONTROL FOR STRESS PERIOD    1   TIME STEP  193
    SAVE HEAD FOR ALL LAYERS
    SAVE DRAWDOWN FOR ALL LAYERS
    SAVE BUDGET
    PRINT BUDGET
 UBDSV1 SAVING "         STORAGE" ON UNIT   9 AT TIME STEP193, STRESS PERIOD   1
 UBDSV2 SAVING "   CONSTANT HEAD" ON UNIT   9 AT TIME STEP193, STRESS PERIOD   1
 UBDSV1 SAVING "FLOW RIGHT FACE " ON UNIT   9 AT TIME STEP193, STRESS PERIOD   1
 UBDSV1 SAVING "FLOW FRONT FACE " ON UNIT   9 AT TIME STEP193, STRESS PERIOD   1
 UBDSV4 SAVING "   RIVER LEAKAGE" ON UNIT   9 AT TIME STEP193, STRESS PERIOD   1
 UBDSV3 SAVING "        RECHARGE" ON UNIT   9 AT TIME STEP193, STRESS PERIOD   1

 HEAD WILL BE SAVED ON UNIT   37 AT END OF TIME STEP  193, STRESS PERIOD    1

 DRAWDOWN WILL BE SAVED ON UNIT   38 AT END OF TIME STEP  193, STRESS PERIOD    1
1
  VOLUMETRIC BUDGET FOR ENTIRE MODEL AT END OF TIME STEP  193, STRESS PERIOD   1
  ------------------------------------------------------------------------------

     CUMULATIVE VOLUMES      L**3       RATES FOR THIS TIME STEP      L**3/T
     ------------------                 ------------------------

           IN:                                      IN:
           ---                                      ---
             STORAGE =   170690816.0000               STORAGE =      817838.0000
       CONSTANT HEAD =           0.0000         CONSTANT HEAD =           0.0000
       RIVER LEAKAGE =   663248256.0000         RIVER LEAKAGE =     5416087.5000
            RECHARGE =      180737.6719              RECHARGE =          13.8090

            TOTAL IN =   834119808.0000              TOTAL IN =     6233939.5000

          OUT:                                     OUT:
          ----                                     ----
             STORAGE =   831005440.0000               STORAGE =     6168540.0000
       CONSTANT HEAD =           0.0000         CONSTANT HEAD =           0.0000
       RIVER LEAKAGE =     3304344.5000         RIVER LEAKAGE =       66975.8906
            RECHARGE =           0.0000              RECHARGE =           0.0000

           TOTAL OUT =   834309760.0000             TOTAL OUT =     6235516.0000

            IN - OUT =     -189952.0000              IN - OUT =       -1576.5000

 PERCENT DISCREPANCY =          -0.02     PERCENT DISCREPANCY =          -0.03






         TIME SUMMARY AT END OF TIME STEP  193 IN STRESS PERIOD    1
                    SECONDS     MINUTES      HOURS       DAYS        YEARS
                    -----------------------------------------------------------
   TIME STEP LENGTH  86400.      1440.0      24.000      1.0000     2.73785E-03
 STRESS PERIOD TIME 1.66752E+07 2.77920E+05  4632.0      193.00     0.52841    
         TOTAL TIME 1.66752E+07 2.77920E+05  4632.0      193.00     0.52841    
1
 
 SOLVING FOR HEAD 
                                                   Max.-Head-Change                        Max.-Flux-Residual
  Residual-Control   Outer-Iter.   Inner-Iter.     Column Row Layer    Max.-Head-Change    Column Row Layer    Max.-Flux-Residual            L2-New               L2-Old           Solver-Max-Delh
          0                 1           2            50   38     1      -0.4878834892E+00      13  125    1       0.1241620469E+06      0.5447242914E+06      0.1674520649E+03     -0.4878834892E+00
          0                 2           2            34   98     1       0.1780248071E+03      34   98    1       0.6159453408E+05      0.8179448404E+05      0.5447242914E+06      0.1780248071E+03
          1                 2           0            34   98     1       0.1246173628E+03      34   98    1      -0.1811496354E+09      0.1811503661E+09      0.8179448404E+05      0.1780248071E+03
          2                 2           0            34   98     1       0.8723215250E+02      34   98    1      -0.1267765568E+09      0.1267770647E+09      0.1811503661E+09      0.1780248071E+03
          3                 2           0            34   98     1       0.6106250571E+02      34   98    1      -0.8871549719E+08      0.8871585177E+08      0.1267770647E+09      0.1780248071E+03
          4                 2           0            34   98     1       0.4274375327E+02      34   98    1      -0.6207387136E+08      0.6207412218E+08      0.8871585177E+08      0.1780248071E+03
          5                 2           0            34   98     1       0.2992062678E+02      34   98    1      -0.4342473368E+08      0.4342491704E+08      0.6207412218E+08      0.1780248071E+03
          6                 2           0            34   98     1       0.2094443839E+02      34   98    1      -0.3037033757E+08      0.3037048111E+08      0.4342491704E+08      0.1780248071E+03
          7                 2           0            34   98     1       0.1466110662E+02      34   98    1      -0.2123225411E+08      0.2123238038E+08      0.3037048111E+08      0.1780248071E+03
          8                 2           0            34   98     1       0.1026277446E+02      34   98    1      -0.1483588492E+08      0.1483601426E+08      0.2123238038E+08      0.1780248071E+03
                                                   Max.-Head-Change                        Max.-Flux-Residual
  Residual-Control   Outer-Iter.   Inner-Iter.     Column Row Layer    Max.-Head-Change    Column Row Layer    Max.-Flux-Residual            L2-New               L2-Old           Solver-Max-Delh
          9                 2           0            34   98     1       0.7183942001E+01      34   98    1      -0.1035846814E+08      0.1035862143E+08      0.1483601426E+08      0.1780248071E+03
         10                 2           0            34   98     1       0.5028759315E+01      34   98    1      -0.7224276452E+07      0.7224477898E+07      0.1035862143E+08      0.1780248071E+03
         11                 2           0            34   98     1       0.3520131460E+01      34   98    1      -0.5030342310E+07      0.5030622833E+07      0.7224477898E+07      0.1780248071E+03
         12                 2           0            34   98     1       0.2464091980E+01      34   98    1      -0.3494588438E+07      0.3494990200E+07      0.5030622833E+07      0.1780248071E+03
         13                 2           0            34   98     1       0.1724864357E+01      34   98    1      -0.2419560747E+07      0.2420143750E+07      0.3494990200E+07      0.1780248071E+03
         14                 2           0            34   98     1       0.1207405029E+01      34   98    1      -0.1667041376E+07      0.1667893639E+07      0.2420143750E+07      0.1780248071E+03
         15                 2           0            34   98     1       0.8451835061E+00      34   98    1      -0.1140277825E+07      0.1141530644E+07      0.1667893639E+07      0.1780248071E+03
         16                 2           0            34   98     1       0.5916284442E+00      34   98    1      -0.7715433463E+06      0.7734010141E+06      0.1141530644E+07      0.1780248071E+03
         17                 2           0            34   98     1       0.4141399039E+00      34   98    1      -0.5134292154E+06      0.5162242509E+06      0.7734010141E+06      0.1780248071E+03
         18                 2           0            34   98     1       0.2898979278E+00      34   98    1      -0.3327493269E+06      0.3370542777E+06      0.5162242509E+06      0.1780248071E+03
                                                   Max.-Head-Change                        Max.-Flux-Residual
  Residual-Control   Outer-Iter.   Inner-Iter.     Column Row Layer    Max.-Head-Change    Column Row Layer    Max.-Flux-Residual            L2-New               L2-Old           Solver-Max-Delh
         19                 2           0            34   98     1       0.2029285460E+00      34   98    1      -0.2062734071E+06      0.2131574085E+06      0.3370542777E+06      0.1780248071E+03
         20                 2           0            34   98     1       0.1420499798E+00      34   98    1      -0.1177402647E+06      0.1294328296E+06      0.2131574085E+06      0.1780248071E+03
          0                 3           2            50   38     1       0.3502110070E+01      34   98    1      -0.5576706611E+05      0.7747232685E+05      0.1294328296E+06      0.3502110070E+01
          1                 3           0            50   38     1       0.2451477007E+01      49   35    1      -0.4121802357E+06      0.5144690573E+06      0.7747232685E+05      0.3502110070E+01
          2                 3           0            50   38     1       0.1716033876E+01      49   35    1      -0.2874006184E+06      0.3594821349E+06      0.5144690573E+06      0.3502110070E+01
          3                 3           0            50   38     1       0.1201223693E+01      49   35    1      -0.2000548878E+06      0.2528206861E+06      0.3594821349E+06      0.3502110070E+01
          4                 3           0            50   38     1       0.8408565705E+00      49   35    1      -0.1389128774E+06      0.1807212154E+06      0.2528206861E+06      0.3502110070E+01
          5                 3           0            50   38     1       0.5885995893E+00      49   35    1      -0.9611347088E+05      0.1336562466E+06      0.1807212154E+06      0.3502110070E+01
          6                 3           0            50   38     1       0.4120197055E+00      49   35    1      -0.6615388680E+05      0.1047764184E+06      0.1336562466E+06      0.3502110070E+01
          7                 3           0            50   38     1       0.2884137889E+00      34   98    1      -0.4953417404E+05      0.8865082169E+05      0.1047764184E+06      0.3502110070E+01
                                                   Max.-Head-Change                        Max.-Flux-Residual
  Residual-Control   Outer-Iter.   Inner-Iter.     Column Row Layer    Max.-Head-Change    Column Row Layer    Max.-Flux-Residual            L2-New               L2-Old           Solver-Max-Delh
          0                 4           2            51   39     1       0.6625183480E+00      34   98    1      -0.5140404172E+05      0.8067878058E+05      0.8865082169E+05      0.6625183480E+00
          0                 5           2            69   15     1       0.9330377650E-01      49   35    1      -0.5413841411E+04      0.7605137675E+04      0.8067878058E+05      0.9330377650E-01
          0                 6           2            69   15     1       0.9281683071E-01      49   35    1      -0.9608564690E+03      0.1197962850E+04      0.7605137675E+04      0.9281683071E-01

    ------------------------------------------------
       NWT REQUIRED            6 OUTER ITERATIONS 
       AND A TOTAL OF         12 INNER ITERATIONS.
    ------------------------------------------------

 OUTPUT CONTROL FOR STRESS PERIOD    1   TIME STEP  194
    SAVE HEAD FOR ALL LAYERS
    SAVE DRAWDOWN FOR ALL LAYERS
    SAVE BUDGET
    PRINT BUDGET
 UBDSV1 SAVING "         STORAGE" ON UNIT   9 AT TIME STEP194, STRESS PERIOD   1
 UBDSV2 SAVING "   CONSTANT HEAD" ON UNIT   9 AT TIME STEP194, STRESS PERIOD   1
 UBDSV1 SAVING "FLOW RIGHT FACE " ON UNIT   9 AT TIME STEP194, STRESS PERIOD   1
 UBDSV1 SAVING "FLOW FRONT FACE " ON UNIT   9 AT TIME STEP194, STRESS PERIOD   1
 UBDSV4 SAVING "   RIVER LEAKAGE" ON UNIT   9 AT TIME STEP194, STRESS PERIOD   1
 UBDSV3 SAVING "        RECHARGE" ON UNIT   9 AT TIME STEP194, STRESS PERIOD   1

 HEAD WILL BE SAVED ON UNIT   37 AT END OF TIME STEP  194, STRESS PERIOD    1

 DRAWDOWN WILL BE SAVED ON UNIT   38 AT END OF TIME STEP  194, STRESS PERIOD    1
1
  VOLUMETRIC BUDGET FOR ENTIRE MODEL AT END OF TIME STEP  194, STRESS PERIOD   1
  ------------------------------------------------------------------------------

     CUMULATIVE VOLUMES      L**3       RATES FOR THIS TIME STEP      L**3/T
     ------------------                 ------------------------

           IN:                                      IN:
           ---                                      ---
             STORAGE =   171509792.0000               STORAGE =      818968.3125
       CONSTANT HEAD =           0.0000         CONSTANT HEAD =           0.0000
       RIVER LEAKAGE =   667977280.0000         RIVER LEAKAGE =     4729026.5000
            RECHARGE =      180755.0781              RECHARGE =          17.4059

            TOTAL IN =   839667840.0000              TOTAL IN =     5548012.5000

          OUT:                                     OUT:
          ----                                     ----
             STORAGE =   836480128.0000               STORAGE =     5474692.5000
       CONSTANT HEAD =           0.0000         CONSTANT HEAD =           0.0000
       RIVER LEAKAGE =     3378001.0000         RIVER LEAKAGE =       73656.4531
            RECHARGE =           0.0000              RECHARGE =           0.0000

           TOTAL OUT =   839858112.0000             TOTAL OUT =     5548349.0000

            IN - OUT =     -190272.0000              IN - OUT =        -336.5000

 PERCENT DISCREPANCY =          -0.02     PERCENT DISCREPANCY =          -0.01






         TIME SUMMARY AT END OF TIME STEP  194 IN STRESS PERIOD    1
                    SECONDS     MINUTES      HOURS       DAYS        YEARS
                    -----------------------------------------------------------
   TIME STEP LENGTH  86400.      1440.0      24.000      1.0000     2.73785E-03
 STRESS PERIOD TIME 1.67616E+07 2.79360E+05  4656.0      194.00     0.53114    
         TOTAL TIME 1.67616E+07 2.79360E+05  4656.0      194.00     0.53114    
1
 
 SOLVING FOR HEAD 
                                                   Max.-Head-Change                        Max.-Flux-Residual
  Residual-Control   Outer-Iter.   Inner-Iter.     Column Row Layer    Max.-Head-Change    Column Row Layer    Max.-Flux-Residual            L2-New               L2-Old           Solver-Max-Delh
          0                 1           2            51   39     1       0.3962951147E+00      13  125    1       0.1537123582E+06      0.6482501147E+06      0.2103297059E+03      0.3962951147E+00
          0                 2           2            69   15     1       0.9513890494E-01      13  125    1      -0.1537175839E+05      0.6482607960E+05      0.6482501147E+06      0.9513890494E-01
          0                 3           2            69   15     1       0.9462976838E-01      13  125    1      -0.7685914262E+03      0.3241310902E+04      0.6482607960E+05      0.9462976838E-01

    ------------------------------------------------
       NWT REQUIRED            3 OUTER ITERATIONS 
       AND A TOTAL OF          6 INNER ITERATIONS.
    ------------------------------------------------

 OUTPUT CONTROL FOR STRESS PERIOD    1   TIME STEP  195
    SAVE HEAD FOR ALL LAYERS
    SAVE DRAWDOWN FOR ALL LAYERS
    SAVE BUDGET
    PRINT BUDGET
 UBDSV1 SAVING "         STORAGE" ON UNIT   9 AT TIME STEP195, STRESS PERIOD   1
 UBDSV2 SAVING "   CONSTANT HEAD" ON UNIT   9 AT TIME STEP195, STRESS PERIOD   1
 UBDSV1 SAVING "FLOW RIGHT FACE " ON UNIT   9 AT TIME STEP195, STRESS PERIOD   1
 UBDSV1 SAVING "FLOW FRONT FACE " ON UNIT   9 AT TIME STEP195, STRESS PERIOD   1
 UBDSV4 SAVING "   RIVER LEAKAGE" ON UNIT   9 AT TIME STEP195, STRESS PERIOD   1
 UBDSV3 SAVING "        RECHARGE" ON UNIT   9 AT TIME STEP195, STRESS PERIOD   1

 HEAD WILL BE SAVED ON UNIT   37 AT END OF TIME STEP  195, STRESS PERIOD    1

 DRAWDOWN WILL BE SAVED ON UNIT   38 AT END OF TIME STEP  195, STRESS PERIOD    1
1
  VOLUMETRIC BUDGET FOR ENTIRE MODEL AT END OF TIME STEP  195, STRESS PERIOD   1
  ------------------------------------------------------------------------------

     CUMULATIVE VOLUMES      L**3       RATES FOR THIS TIME STEP      L**3/T
     ------------------                 ------------------------

           IN:                                      IN:
           ---                                      ---
             STORAGE =   172326496.0000               STORAGE =      816712.0000
       CONSTANT HEAD =           0.0000         CONSTANT HEAD =           0.0000
       RIVER LEAKAGE =   673546880.0000         RIVER LEAKAGE =     5569596.0000
            RECHARGE =      180776.2812              RECHARGE =          21.2084

            TOTAL IN =   846054144.0000              TOTAL IN =     6386329.0000

          OUT:                                     OUT:
          ----                                     ----
             STORAGE =   842792256.0000               STORAGE =     6312132.5000
       CONSTANT HEAD =           0.0000         CONSTANT HEAD =           0.0000
       RIVER LEAKAGE =     3453977.0000         RIVER LEAKAGE =       75975.9219
            RECHARGE =           0.0000              RECHARGE =           0.0000

           TOTAL OUT =   846246208.0000             TOTAL OUT =     6388108.5000

            IN - OUT =     -192064.0000              IN - OUT =       -1779.5000

 PERCENT DISCREPANCY =          -0.02     PERCENT DISCREPANCY =          -0.03






         TIME SUMMARY AT END OF TIME STEP  195 IN STRESS PERIOD    1
                    SECONDS     MINUTES      HOURS       DAYS        YEARS
                    -----------------------------------------------------------
   TIME STEP LENGTH  86400.      1440.0      24.000      1.0000     2.73785E-03
 STRESS PERIOD TIME 1.68480E+07 2.80800E+05  4680.0      195.00     0.53388    
         TOTAL TIME 1.68480E+07 2.80800E+05  4680.0      195.00     0.53388    
1
 
 SOLVING FOR HEAD 
                                                   Max.-Head-Change                        Max.-Flux-Residual
  Residual-Control   Outer-Iter.   Inner-Iter.     Column Row Layer    Max.-Head-Change    Column Row Layer    Max.-Flux-Residual            L2-New               L2-Old           Solver-Max-Delh
          0                 1           2            58   36     1       0.3954361202E+00      13  125    1       0.1545241467E+06      0.6125132006E+06      0.1620458989E+03      0.3954361202E+00
          0                 2           2            69   15     1       0.9690143222E-01      13  125    1      -0.1545294264E+05      0.6125249021E+05      0.6125132006E+06      0.9690143222E-01
          0                 3           2            69   15     1       0.9636864275E-01      13  125    1      -0.7726506772E+03      0.3062634226E+04      0.6125249021E+05      0.9636864275E-01

    ------------------------------------------------
       NWT REQUIRED            3 OUTER ITERATIONS 
       AND A TOTAL OF          6 INNER ITERATIONS.
    ------------------------------------------------

 OUTPUT CONTROL FOR STRESS PERIOD    1   TIME STEP  196
    SAVE HEAD FOR ALL LAYERS
    SAVE DRAWDOWN FOR ALL LAYERS
    SAVE BUDGET
    PRINT BUDGET
 UBDSV1 SAVING "         STORAGE" ON UNIT   9 AT TIME STEP196, STRESS PERIOD   1
 UBDSV2 SAVING "   CONSTANT HEAD" ON UNIT   9 AT TIME STEP196, STRESS PERIOD   1
 UBDSV1 SAVING "FLOW RIGHT FACE " ON UNIT   9 AT TIME STEP196, STRESS PERIOD   1
 UBDSV1 SAVING "FLOW FRONT FACE " ON UNIT   9 AT TIME STEP196, STRESS PERIOD   1
 UBDSV4 SAVING "   RIVER LEAKAGE" ON UNIT   9 AT TIME STEP196, STRESS PERIOD   1
 UBDSV3 SAVING "        RECHARGE" ON UNIT   9 AT TIME STEP196, STRESS PERIOD   1

 HEAD WILL BE SAVED ON UNIT   37 AT END OF TIME STEP  196, STRESS PERIOD    1

 DRAWDOWN WILL BE SAVED ON UNIT   38 AT END OF TIME STEP  196, STRESS PERIOD    1
1
  VOLUMETRIC BUDGET FOR ENTIRE MODEL AT END OF TIME STEP  196, STRESS PERIOD   1
  ------------------------------------------------------------------------------

     CUMULATIVE VOLUMES      L**3       RATES FOR THIS TIME STEP      L**3/T
     ------------------                 ------------------------

           IN:                                      IN:
           ---                                      ---
             STORAGE =   173143200.0000               STORAGE =      816706.0625
       CONSTANT HEAD =           0.0000         CONSTANT HEAD =           0.0000
       RIVER LEAKAGE =   679137920.0000         RIVER LEAKAGE =     5591047.5000
            RECHARGE =      180800.9531              RECHARGE =          24.6680

            TOTAL IN =   852461952.0000              TOTAL IN =     6407778.0000

          OUT:                                     OUT:
          ----                                     ----
             STORAGE =   849123520.0000               STORAGE =     6331245.0000
       CONSTANT HEAD =           0.0000         CONSTANT HEAD =           0.0000
       RIVER LEAKAGE =     3531801.0000         RIVER LEAKAGE =       77824.0625
            RECHARGE =           0.0000              RECHARGE =           0.0000

           TOTAL OUT =   852655296.0000             TOTAL OUT =     6409069.0000

            IN - OUT =     -193344.0000              IN - OUT =       -1291.0000

 PERCENT DISCREPANCY =          -0.02     PERCENT DISCREPANCY =          -0.02






         TIME SUMMARY AT END OF TIME STEP  196 IN STRESS PERIOD    1
                    SECONDS     MINUTES      HOURS       DAYS        YEARS
                    -----------------------------------------------------------
   TIME STEP LENGTH  86400.      1440.0      24.000      1.0000     2.73785E-03
 STRESS PERIOD TIME 1.69344E+07 2.82240E+05  4704.0      196.00     0.53662    
         TOTAL TIME 1.69344E+07 2.82240E+05  4704.0      196.00     0.53662    
1
 
 SOLVING FOR HEAD 
                                                   Max.-Head-Change                        Max.-Flux-Residual
  Residual-Control   Outer-Iter.   Inner-Iter.     Column Row Layer    Max.-Head-Change    Column Row Layer    Max.-Flux-Residual            L2-New               L2-Old           Solver-Max-Delh
          0                 1           2            58   36     1       0.3716129870E+00      13  125    1       0.1394999159E+06      0.5602143008E+06      0.1531499826E+03      0.3716129870E+00
          0                 2           2            58   36     1       0.4329534303E+00      13  125    1      -0.1395042324E+05      0.5723859553E+05      0.5602143008E+06      0.4329534303E+00
          0                 3           2            54   48     1       0.3995394330E+00      58   36    1      -0.1221489368E+04      0.3051570821E+04      0.5723859553E+05      0.3995394330E+00

    ------------------------------------------------
       NWT REQUIRED            3 OUTER ITERATIONS 
       AND A TOTAL OF          6 INNER ITERATIONS.
    ------------------------------------------------

 OUTPUT CONTROL FOR STRESS PERIOD    1   TIME STEP  197
    SAVE HEAD FOR ALL LAYERS
    SAVE DRAWDOWN FOR ALL LAYERS
    SAVE BUDGET
    PRINT BUDGET
 UBDSV1 SAVING "         STORAGE" ON UNIT   9 AT TIME STEP197, STRESS PERIOD   1
 UBDSV2 SAVING "   CONSTANT HEAD" ON UNIT   9 AT TIME STEP197, STRESS PERIOD   1
 UBDSV1 SAVING "FLOW RIGHT FACE " ON UNIT   9 AT TIME STEP197, STRESS PERIOD   1
 UBDSV1 SAVING "FLOW FRONT FACE " ON UNIT   9 AT TIME STEP197, STRESS PERIOD   1
 UBDSV4 SAVING "   RIVER LEAKAGE" ON UNIT   9 AT TIME STEP197, STRESS PERIOD   1
 UBDSV3 SAVING "        RECHARGE" ON UNIT   9 AT TIME STEP197, STRESS PERIOD   1

 HEAD WILL BE SAVED ON UNIT   37 AT END OF TIME STEP  197, STRESS PERIOD    1

 DRAWDOWN WILL BE SAVED ON UNIT   38 AT END OF TIME STEP  197, STRESS PERIOD    1
1
  VOLUMETRIC BUDGET FOR ENTIRE MODEL AT END OF TIME STEP  197, STRESS PERIOD   1
  ------------------------------------------------------------------------------

     CUMULATIVE VOLUMES      L**3       RATES FOR THIS TIME STEP      L**3/T
     ------------------                 ------------------------

           IN:                                      IN:
           ---                                      ---
             STORAGE =   173959728.0000               STORAGE =      816526.0625
       CONSTANT HEAD =           0.0000         CONSTANT HEAD =           0.0000
       RIVER LEAKAGE =   684264896.0000         RIVER LEAKAGE =     5126979.5000
            RECHARGE =      180828.3594              RECHARGE =          27.4040

            TOTAL IN =   858405440.0000              TOTAL IN =     5943533.0000

          OUT:                                     OUT:
          ----                                     ----
             STORAGE =   854989760.0000               STORAGE =     5866244.5000
       CONSTANT HEAD =           0.0000         CONSTANT HEAD =           0.0000
       RIVER LEAKAGE =     3610254.7500         RIVER LEAKAGE =       78453.6875
            RECHARGE =           0.0000              RECHARGE =           0.0000

           TOTAL OUT =   858600000.0000             TOTAL OUT =     5944698.0000

            IN - OUT =     -194560.0000              IN - OUT =       -1165.0000

 PERCENT DISCREPANCY =          -0.02     PERCENT DISCREPANCY =          -0.02






         TIME SUMMARY AT END OF TIME STEP  197 IN STRESS PERIOD    1
                    SECONDS     MINUTES      HOURS       DAYS        YEARS
                    -----------------------------------------------------------
   TIME STEP LENGTH  86400.      1440.0      24.000      1.0000     2.73785E-03
 STRESS PERIOD TIME 1.70208E+07 2.83680E+05  4728.0      197.00     0.53936    
         TOTAL TIME 1.70208E+07 2.83680E+05  4728.0      197.00     0.53936    
1
 
 SOLVING FOR HEAD 
                                                   Max.-Head-Change                        Max.-Flux-Residual
  Residual-Control   Outer-Iter.   Inner-Iter.     Column Row Layer    Max.-Head-Change    Column Row Layer    Max.-Flux-Residual            L2-New               L2-Old           Solver-Max-Delh
          0                 1           2            58   36     1       0.6722381482E+00      13  125    1       0.1382747211E+06      0.5490840936E+06      0.1526254523E+03      0.6722381482E+00
          0                 2           2            29  113     1       0.8999931199E+02      29  113    1       0.3588769542E+05      0.6536144091E+05      0.5490840936E+06      0.8999931199E+02
          1                 2           0            29  113     1       0.6299951732E+02      29  113    1      -0.1378635766E+08      0.1378635920E+08      0.6536144091E+05      0.8999931199E+02
          2                 2           0            29  113     1       0.4409966138E+02      29  113    1      -0.9635793041E+07      0.9635810859E+07      0.1378635920E+08      0.8999931199E+02
          3                 2           0            29  113     1       0.3086976244E+02      29  113    1      -0.6730397855E+07      0.6730461145E+07      0.9635810859E+07      0.8999931199E+02
          4                 2           0            29  113     1       0.2160883334E+02      29  113    1      -0.4696668855E+07      0.4696812985E+07      0.6730461145E+07      0.8999931199E+02
          5                 2           0            29  113     1       0.1512618308E+02      29  113    1      -0.3273997042E+07      0.3274268270E+07      0.4696812985E+07      0.8999931199E+02
          6                 2           0            29  113     1       0.1058832797E+02      29  113    1      -0.2278332970E+07      0.2278795042E+07      0.3274268270E+07      0.8999931199E+02
          7                 2           0            29  113     1       0.7411829456E+01      29  113    1      -0.1581368144E+07      0.1582111999E+07      0.2278795042E+07      0.8999931199E+02
          8                 2           0            29  113     1       0.5188280531E+01      29  113    1      -0.1093492781E+07      0.1094651096E+07      0.1582111999E+07      0.8999931199E+02
                                                   Max.-Head-Change                        Max.-Flux-Residual
  Residual-Control   Outer-Iter.   Inner-Iter.     Column Row Layer    Max.-Head-Change    Column Row Layer    Max.-Flux-Residual            L2-New               L2-Old           Solver-Max-Delh
          9                 2           0            29  113     1       0.3631796310E+01      29  113    1      -0.7519800356E+06      0.7537503012E+06      0.1094651096E+07      0.8999931199E+02
         10                 2           0            29  113     1       0.2542257374E+01      29  113    1      -0.5129201511E+06      0.5156028392E+06      0.7537503012E+06      0.8999931199E+02
         11                 2           0            29  113     1       0.1779580131E+01      29  113    1      -0.3455749973E+06      0.3496396065E+06      0.5156028392E+06      0.8999931199E+02
         12                 2           0            29  113     1       0.1245706071E+01      29  113    1      -0.2284333921E+06      0.2346372971E+06      0.3496396065E+06      0.8999931199E+02
         13                 2           0            29  113     1       0.8719942346E+00      29  113    1      -0.1464342701E+06      0.1560417350E+06      0.2346372971E+06      0.8999931199E+02
         14                 2           0            29  113     1       0.6103959538E+00      29  113    1      -0.8903488576E+05      0.1041949070E+06      0.1560417350E+06      0.8999931199E+02
         15                 2           0            29  113     1       0.4272771604E+00      29  113    1      -0.4885531749E+05      0.7302467712E+05      0.1041949070E+06      0.8999931199E+02
          0                 3           2            29  113     1      -0.1282227882E+00      29  113    1      -0.2072962020E+05      0.5819777806E+05      0.7302467712E+05     -0.1282227882E+00
          0                 4           2            69   15     1       0.9961759475E-01      29  113    1      -0.1036484452E+04      0.2909395838E+04      0.5819777806E+05      0.9961759475E-01

    ------------------------------------------------
       NWT REQUIRED            4 OUTER ITERATIONS 
       AND A TOTAL OF          8 INNER ITERATIONS.
    ------------------------------------------------

 OUTPUT CONTROL FOR STRESS PERIOD    1   TIME STEP  198
    SAVE HEAD FOR ALL LAYERS
    SAVE DRAWDOWN FOR ALL LAYERS
    SAVE BUDGET
    PRINT BUDGET
 UBDSV1 SAVING "         STORAGE" ON UNIT   9 AT TIME STEP198, STRESS PERIOD   1
 UBDSV2 SAVING "   CONSTANT HEAD" ON UNIT   9 AT TIME STEP198, STRESS PERIOD   1
 UBDSV1 SAVING "FLOW RIGHT FACE " ON UNIT   9 AT TIME STEP198, STRESS PERIOD   1
 UBDSV1 SAVING "FLOW FRONT FACE " ON UNIT   9 AT TIME STEP198, STRESS PERIOD   1
 UBDSV4 SAVING "   RIVER LEAKAGE" ON UNIT   9 AT TIME STEP198, STRESS PERIOD   1
 UBDSV3 SAVING "        RECHARGE" ON UNIT   9 AT TIME STEP198, STRESS PERIOD   1

 HEAD WILL BE SAVED ON UNIT   37 AT END OF TIME STEP  198, STRESS PERIOD    1

 DRAWDOWN WILL BE SAVED ON UNIT   38 AT END OF TIME STEP  198, STRESS PERIOD    1
1
  VOLUMETRIC BUDGET FOR ENTIRE MODEL AT END OF TIME STEP  198, STRESS PERIOD   1
  ------------------------------------------------------------------------------

     CUMULATIVE VOLUMES      L**3       RATES FOR THIS TIME STEP      L**3/T
     ------------------                 ------------------------

           IN:                                      IN:
           ---                                      ---
             STORAGE =   174774880.0000               STORAGE =      815149.8750
       CONSTANT HEAD =           0.0000         CONSTANT HEAD =           0.0000
       RIVER LEAKAGE =   689301184.0000         RIVER LEAKAGE =     5036262.5000
            RECHARGE =      180857.5938              RECHARGE =          29.2355

            TOTAL IN =   864256896.0000              TOTAL IN =     5851441.5000

          OUT:                                     OUT:
          ----                                     ----
             STORAGE =   860764416.0000               STORAGE =     5774637.0000
       CONSTANT HEAD =           0.0000         CONSTANT HEAD =           0.0000
       RIVER LEAKAGE =     3688325.7500         RIVER LEAKAGE =       78071.0312
            RECHARGE =           0.0000              RECHARGE =           0.0000

           TOTAL OUT =   864452736.0000             TOTAL OUT =     5852708.0000

            IN - OUT =     -195840.0000              IN - OUT =       -1266.5000

 PERCENT DISCREPANCY =          -0.02     PERCENT DISCREPANCY =          -0.02






         TIME SUMMARY AT END OF TIME STEP  198 IN STRESS PERIOD    1
                    SECONDS     MINUTES      HOURS       DAYS        YEARS
                    -----------------------------------------------------------
   TIME STEP LENGTH  86400.      1440.0      24.000      1.0000     2.73785E-03
 STRESS PERIOD TIME 1.71072E+07 2.85120E+05  4752.0      198.00     0.54209    
         TOTAL TIME 1.71072E+07 2.85120E+05  4752.0      198.00     0.54209    
1
 
 SOLVING FOR HEAD 
                                                   Max.-Head-Change                        Max.-Flux-Residual
  Residual-Control   Outer-Iter.   Inner-Iter.     Column Row Layer    Max.-Head-Change    Column Row Layer    Max.-Flux-Residual            L2-New               L2-Old           Solver-Max-Delh
          0                 1           2            29  113     1       0.9210773354E+00      26  115    1       0.5020159628E+06      0.1947089482E+07      0.1454305759E+03      0.9210773354E+00
          0                 2           2            34   99     1       0.5475228215E+00      34   99    1       0.2397778168E+06      0.3057467194E+06      0.1947089482E+07      0.5475228215E+00
          0                 3           2            69   15     1       0.1011287030E+00      34   99    1      -0.2397660250E+05      0.2578421044E+05      0.3057467194E+06      0.1011287030E+00
          0                 4           2            69   15     1       0.1005267749E+00      34   99    1      -0.1198829764E+04      0.1289176939E+04      0.2578421044E+05      0.1005267749E+00

    ------------------------------------------------
       NWT REQUIRED            4 OUTER ITERATIONS 
       AND A TOTAL OF          8 INNER ITERATIONS.
    ------------------------------------------------

 OUTPUT CONTROL FOR STRESS PERIOD    1   TIME STEP  199
    SAVE HEAD FOR ALL LAYERS
    SAVE DRAWDOWN FOR ALL LAYERS
    SAVE BUDGET
    PRINT BUDGET
 UBDSV1 SAVING "         STORAGE" ON UNIT   9 AT TIME STEP199, STRESS PERIOD   1
 UBDSV2 SAVING "   CONSTANT HEAD" ON UNIT   9 AT TIME STEP199, STRESS PERIOD   1
 UBDSV1 SAVING "FLOW RIGHT FACE " ON UNIT   9 AT TIME STEP199, STRESS PERIOD   1
 UBDSV1 SAVING "FLOW FRONT FACE " ON UNIT   9 AT TIME STEP199, STRESS PERIOD   1
 UBDSV4 SAVING "   RIVER LEAKAGE" ON UNIT   9 AT TIME STEP199, STRESS PERIOD   1
 UBDSV3 SAVING "        RECHARGE" ON UNIT   9 AT TIME STEP199, STRESS PERIOD   1

 HEAD WILL BE SAVED ON UNIT   37 AT END OF TIME STEP  199, STRESS PERIOD    1

 DRAWDOWN WILL BE SAVED ON UNIT   38 AT END OF TIME STEP  199, STRESS PERIOD    1
1
  VOLUMETRIC BUDGET FOR ENTIRE MODEL AT END OF TIME STEP  199, STRESS PERIOD   1
  ------------------------------------------------------------------------------

     CUMULATIVE VOLUMES      L**3       RATES FOR THIS TIME STEP      L**3/T
     ------------------                 ------------------------

           IN:                                      IN:
           ---                                      ---
             STORAGE =   175588656.0000               STORAGE =      813778.9375
       CONSTANT HEAD =           0.0000         CONSTANT HEAD =           0.0000
       RIVER LEAKAGE =   702613632.0000         RIVER LEAKAGE =    13312478.0000
            RECHARGE =      180887.7500              RECHARGE =          30.1493

            TOTAL IN =   878383168.0000              TOTAL IN =    14126287.0000

          OUT:                                     OUT:
          ----                                     ----
             STORAGE =   874816896.0000               STORAGE =    14052451.0000
       CONSTANT HEAD =           0.0000         CONSTANT HEAD =           0.0000
       RIVER LEAKAGE =     3762440.0000         RIVER LEAKAGE =       74114.3750
            RECHARGE =           0.0000              RECHARGE =           0.0000

           TOTAL OUT =   878579328.0000             TOTAL OUT =    14126565.0000

            IN - OUT =     -196160.0000              IN - OUT =        -278.0000

 PERCENT DISCREPANCY =          -0.02     PERCENT DISCREPANCY =          -0.00






         TIME SUMMARY AT END OF TIME STEP  199 IN STRESS PERIOD    1
                    SECONDS     MINUTES      HOURS       DAYS        YEARS
                    -----------------------------------------------------------
   TIME STEP LENGTH  86400.      1440.0      24.000      1.0000     2.73785E-03
 STRESS PERIOD TIME 1.71936E+07 2.86560E+05  4776.0      199.00     0.54483    
         TOTAL TIME 1.71936E+07 2.86560E+05  4776.0      199.00     0.54483    
1
 
 SOLVING FOR HEAD 
                                                   Max.-Head-Change                        Max.-Flux-Residual
  Residual-Control   Outer-Iter.   Inner-Iter.     Column Row Layer    Max.-Head-Change    Column Row Layer    Max.-Flux-Residual            L2-New               L2-Old           Solver-Max-Delh
          0                 1           2            38   71     1       0.6891092043E+00      13  125    1       0.3320914204E+06      0.1346693023E+07      0.6447821929E+02      0.6891092043E+00
          0                 2           2            29  112     1       0.1995230210E+03      29  112    1       0.8207669542E+05      0.1568844909E+06      0.1346693023E+07      0.1995230210E+03
          1                 2           0            29  112     1       0.1396661123E+03      29  112    1      -0.3688359208E+08      0.3688359662E+08      0.1568844909E+06      0.1995230210E+03
          2                 2           0            29  112     1       0.9776627698E+02      29  112    1      -0.2579291937E+08      0.2579296014E+08      0.3688359662E+08      0.1995230210E+03
          3                 2           0            29  112     1       0.6843639272E+02      29  112    1      -0.1802944861E+08      0.1802959088E+08      0.2579296014E+08      0.1995230210E+03
          4                 2           0            29  112     1       0.4790547409E+02      29  112    1      -0.1259501916E+08      0.1259534175E+08      0.1802959088E+08      0.1995230210E+03
          5                 2           0            29  112     1       0.3353383129E+02      29  112    1      -0.8790918620E+07      0.8791524493E+07      0.1259534175E+08      0.1995230210E+03
          6                 2           0            29  112     1       0.2347368150E+02      29  112    1      -0.6128431975E+07      0.6129461958E+07      0.8791524493E+07      0.1995230210E+03
          7                 2           0            29  112     1       0.1643157677E+02      29  112    1      -0.4264947861E+07      0.4266600977E+07      0.6129461958E+07      0.1995230210E+03
          8                 2           0            29  112     1       0.1150210355E+02      29  112    1      -0.2960509000E+07      0.2963072975E+07      0.4266600977E+07      0.1995230210E+03
                                                   Max.-Head-Change                        Max.-Flux-Residual
  Residual-Control   Outer-Iter.   Inner-Iter.     Column Row Layer    Max.-Head-Change    Column Row Layer    Max.-Flux-Residual            L2-New               L2-Old           Solver-Max-Delh
          9                 2           0            29  112     1       0.8051472344E+01      29  112    1      -0.2047536425E+07      0.2051432825E+07      0.2963072975E+07      0.1995230210E+03
         10                 2           0            29  112     1       0.5636030545E+01      29  112    1      -0.1408543855E+07      0.1414399933E+07      0.2051432825E+07      0.1995230210E+03
         11                 2           0            29  112     1       0.3945221314E+01      29  112    1      -0.9612490660E+06      0.9700149663E+06      0.1414399933E+07      0.1995230210E+03
         12                 2           0            29  112     1       0.2761654873E+01      29  112    1      -0.6481427202E+06      0.6612863280E+06      0.9700149663E+06      0.1995230210E+03
         13                 2           0            29  112     1       0.1933158378E+01      29  112    1      -0.4289682825E+06      0.4488014531E+06      0.6612863280E+06      0.1995230210E+03
         14                 2           0            29  112     1       0.1353210842E+01      29  112    1      -0.2755461790E+06      0.3057354545E+06      0.4488014531E+06      0.1995230210E+03
         15                 2           0            29  112     1       0.9472475731E+00      29  112    1      -0.1681507085E+06      0.2142921497E+06      0.3057354545E+06      0.1995230210E+03
          0                 3           2            29  112     1      -0.4769685234E+00      29  112    1      -0.9297388054E+05      0.1623556764E+06      0.2142921497E+06     -0.4769685234E+00
          0                 4           2            69   15     1       0.1044792585E+00      29  112    1      -0.4660040226E+04      0.8123201630E+04      0.1623556764E+06      0.1044792585E+00

    ------------------------------------------------
       NWT REQUIRED            4 OUTER ITERATIONS 
       AND A TOTAL OF          8 INNER ITERATIONS.
    ------------------------------------------------

 OUTPUT CONTROL FOR STRESS PERIOD    1   TIME STEP  200
    SAVE HEAD FOR ALL LAYERS
    SAVE DRAWDOWN FOR ALL LAYERS
    SAVE BUDGET
    PRINT BUDGET
 UBDSV1 SAVING "         STORAGE" ON UNIT   9 AT TIME STEP200, STRESS PERIOD   1
 UBDSV2 SAVING "   CONSTANT HEAD" ON UNIT   9 AT TIME STEP200, STRESS PERIOD   1
 UBDSV1 SAVING "FLOW RIGHT FACE " ON UNIT   9 AT TIME STEP200, STRESS PERIOD   1
 UBDSV1 SAVING "FLOW FRONT FACE " ON UNIT   9 AT TIME STEP200, STRESS PERIOD   1
 UBDSV4 SAVING "   RIVER LEAKAGE" ON UNIT   9 AT TIME STEP200, STRESS PERIOD   1
 UBDSV3 SAVING "        RECHARGE" ON UNIT   9 AT TIME STEP200, STRESS PERIOD   1

 HEAD WILL BE SAVED ON UNIT   37 AT END OF TIME STEP  200, STRESS PERIOD    1

 DRAWDOWN WILL BE SAVED ON UNIT   38 AT END OF TIME STEP  200, STRESS PERIOD    1
1
  VOLUMETRIC BUDGET FOR ENTIRE MODEL AT END OF TIME STEP  200, STRESS PERIOD   1
  ------------------------------------------------------------------------------

     CUMULATIVE VOLUMES      L**3       RATES FOR THIS TIME STEP      L**3/T
     ------------------                 ------------------------

           IN:                                      IN:
           ---                                      ---
             STORAGE =   176402672.0000               STORAGE =      814014.5000
       CONSTANT HEAD =           0.0000         CONSTANT HEAD =           0.0000
       RIVER LEAKAGE =   713740928.0000         RIVER LEAKAGE =    11127267.0000
            RECHARGE =      180918.6719              RECHARGE =          30.9172

            TOTAL IN =   890324544.0000              TOTAL IN =    11941312.0000

          OUT:                                     OUT:
          ----                                     ----
             STORAGE =   886684224.0000               STORAGE =    11867328.0000
       CONSTANT HEAD =           0.0000         CONSTANT HEAD =           0.0000
       RIVER LEAKAGE =     3839772.5000         RIVER LEAKAGE =       77332.4375
            RECHARGE =           0.0000              RECHARGE =           0.0000

           TOTAL OUT =   890523968.0000             TOTAL OUT =    11944660.0000

            IN - OUT =     -199424.0000              IN - OUT =       -3348.0000

 PERCENT DISCREPANCY =          -0.02     PERCENT DISCREPANCY =          -0.03






         TIME SUMMARY AT END OF TIME STEP  200 IN STRESS PERIOD    1
                    SECONDS     MINUTES      HOURS       DAYS        YEARS
                    -----------------------------------------------------------
   TIME STEP LENGTH  86400.      1440.0      24.000      1.0000     2.73785E-03
 STRESS PERIOD TIME 1.72800E+07 2.88000E+05  4800.0      200.00     0.54757    
         TOTAL TIME 1.72800E+07 2.88000E+05  4800.0      200.00     0.54757    
1
 
 SOLVING FOR HEAD 
                                                   Max.-Head-Change                        Max.-Flux-Residual
  Residual-Control   Outer-Iter.   Inner-Iter.     Column Row Layer    Max.-Head-Change    Column Row Layer    Max.-Flux-Residual            L2-New               L2-Old           Solver-Max-Delh
          0                 1           2            39   51     1       0.9045286113E+00      13  125    1       0.3382569137E+06      0.1237625366E+07      0.4060297467E+03      0.9045286113E+00
          0                 2           2            50   38     1       0.3685038825E+01      13  125    1      -0.3382816481E+05      0.1235904335E+06      0.1237625366E+07      0.3685038825E+01
          1                 2           0            50   38     1       0.2579527134E+01      49   35    1      -0.4104580205E+06      0.5219353520E+06      0.1235904335E+06      0.3685038825E+01
          2                 2           0            50   38     1       0.1805668963E+01      49   35    1      -0.2861554962E+06      0.3657489519E+06      0.5219353520E+06      0.3685038825E+01
          3                 2           0            50   38     1       0.1263968252E+01      49   35    1      -0.1991437307E+06      0.2609480925E+06      0.3657489519E+06      0.3685038825E+01
          4                 2           0            50   38     1       0.8847777617E+00      49   35    1      -0.1382354959E+06      0.1936274514E+06      0.2609480925E+06      0.3685038825E+01
          5                 2           0            50   38     1       0.6193444226E+00      49   35    1      -0.9559973220E+05      0.1536311164E+06      0.1936274514E+06      0.3685038825E+01
          0                 3           2            50   38     1      -0.4587582928E+00      49   35    1      -0.6575469815E+05      0.1325561060E+06      0.1536311164E+06     -0.4587582928E+00
          0                 4           2            69   15     1       0.1055466778E+00      49   35    1      -0.1167145620E+05      0.1551587582E+05      0.1325561060E+06      0.1055466778E+00
          0                 5           2            69   15     1       0.1048760507E+00      49   35    1      -0.2071566273E+04      0.2608115465E+04      0.1551587582E+05      0.1048760507E+00

    ------------------------------------------------
       NWT REQUIRED            5 OUTER ITERATIONS 
       AND A TOTAL OF         10 INNER ITERATIONS.
    ------------------------------------------------

 OUTPUT CONTROL FOR STRESS PERIOD    1   TIME STEP  201
    SAVE HEAD FOR ALL LAYERS
    SAVE DRAWDOWN FOR ALL LAYERS
    SAVE BUDGET
    PRINT BUDGET
 UBDSV1 SAVING "         STORAGE" ON UNIT   9 AT TIME STEP201, STRESS PERIOD   1
 UBDSV2 SAVING "   CONSTANT HEAD" ON UNIT   9 AT TIME STEP201, STRESS PERIOD   1
 UBDSV1 SAVING "FLOW RIGHT FACE " ON UNIT   9 AT TIME STEP201, STRESS PERIOD   1
 UBDSV1 SAVING "FLOW FRONT FACE " ON UNIT   9 AT TIME STEP201, STRESS PERIOD   1
 UBDSV4 SAVING "   RIVER LEAKAGE" ON UNIT   9 AT TIME STEP201, STRESS PERIOD   1
 UBDSV3 SAVING "        RECHARGE" ON UNIT   9 AT TIME STEP201, STRESS PERIOD   1

 HEAD WILL BE SAVED ON UNIT   37 AT END OF TIME STEP  201, STRESS PERIOD    1

 DRAWDOWN WILL BE SAVED ON UNIT   38 AT END OF TIME STEP  201, STRESS PERIOD    1
1
  VOLUMETRIC BUDGET FOR ENTIRE MODEL AT END OF TIME STEP  201, STRESS PERIOD   1
  ------------------------------------------------------------------------------

     CUMULATIVE VOLUMES      L**3       RATES FOR THIS TIME STEP      L**3/T
     ------------------                 ------------------------

           IN:                                      IN:
           ---                                      ---
             STORAGE =   177216160.0000               STORAGE =      813487.2500
       CONSTANT HEAD =           0.0000         CONSTANT HEAD =           0.0000
       RIVER LEAKAGE =   724988032.0000         RIVER LEAKAGE =    11247101.0000
            RECHARGE =      180949.0312              RECHARGE =          30.3636

            TOTAL IN =   902385152.0000              TOTAL IN =    12060618.0000

          OUT:                                     OUT:
          ----                                     ----
             STORAGE =   898663424.0000               STORAGE =    11979181.0000
       CONSTANT HEAD =           0.0000         CONSTANT HEAD =           0.0000
       RIVER LEAKAGE =     3921965.5000         RIVER LEAKAGE =       82192.8984
            RECHARGE =           0.0000              RECHARGE =           0.0000

           TOTAL OUT =   902585408.0000             TOTAL OUT =    12061374.0000

            IN - OUT =     -200256.0000              IN - OUT =        -756.0000

 PERCENT DISCREPANCY =          -0.02     PERCENT DISCREPANCY =          -0.01






         TIME SUMMARY AT END OF TIME STEP  201 IN STRESS PERIOD    1
                    SECONDS     MINUTES      HOURS       DAYS        YEARS
                    -----------------------------------------------------------
   TIME STEP LENGTH  86400.      1440.0      24.000      1.0000     2.73785E-03
 STRESS PERIOD TIME 1.73664E+07 2.89440E+05  4824.0      201.00     0.55031    
         TOTAL TIME 1.73664E+07 2.89440E+05  4824.0      201.00     0.55031    
1
 
 SOLVING FOR HEAD 
                                                   Max.-Head-Change                        Max.-Flux-Residual
  Residual-Control   Outer-Iter.   Inner-Iter.     Column Row Layer    Max.-Head-Change    Column Row Layer    Max.-Flux-Residual            L2-New               L2-Old           Solver-Max-Delh
          0                 1           2            42   58     1      -0.1191962424E+01      43   59    1      -0.2700106315E+06      0.1053329443E+07      0.4607789120E+03     -0.1191962424E+01
          0                 2           2            39   50     1       0.3070360068E+02      43   59    1       0.2700106355E+05      0.1042014227E+06      0.1053329443E+07      0.3070360068E+02
          1                 2           0            39   50     1       0.2149252011E+02      39   50    1      -0.5116837963E+07      0.5216439269E+07      0.1042014227E+06      0.3070360068E+02
          2                 2           0            39   50     1       0.1504476382E+02      39   50    1      -0.3579366011E+07      0.3648302574E+07      0.5216439269E+07      0.3070360068E+02
          3                 2           0            39   50     1       0.1053133449E+02      39   50    1      -0.2503135632E+07      0.2550939495E+07      0.3648302574E+07      0.3070360068E+02
          4                 2           0            39   50     1       0.7371934020E+01      39   50    1      -0.1749774378E+07      0.1783262158E+07      0.2550939495E+07      0.3070360068E+02
          5                 2           0            39   50     1       0.5160353726E+01      39   50    1      -0.1222421510E+07      0.1246571927E+07      0.1783262158E+07      0.3070360068E+02
          6                 2           0            39   50     1       0.3612247547E+01      39   50    1      -0.8532745081E+06      0.8718696056E+06      0.1246571927E+07      0.3070360068E+02
          7                 2           0            39   50     1       0.2528573240E+01      39   50    1      -0.5948716112E+06      0.6109817915E+06      0.8718696056E+06      0.3070360068E+02
          8                 2           0            39   50     1       0.1770001238E+01      39   50    1      -0.4139895864E+06      0.4303558236E+06      0.6109817915E+06      0.3070360068E+02
                                                   Max.-Head-Change                        Max.-Flux-Residual
  Residual-Control   Outer-Iter.   Inner-Iter.     Column Row Layer    Max.-Head-Change    Column Row Layer    Max.-Flux-Residual            L2-New               L2-Old           Solver-Max-Delh
          9                 2           0            39   50     1       0.1239000845E+01      39   50    1      -0.2873721712E+06      0.3067053440E+06      0.4303558236E+06      0.3070360068E+02
         10                 2           0            39   50     1       0.8673005769E+00      39   50    1      -0.1987399821E+06      0.2238967476E+06      0.3067053440E+06      0.3070360068E+02
         11                 2           0            39   50     1       0.6071103935E+00      39   50    1      -0.1366974508E+06      0.1705970769E+06      0.2238967476E+06      0.3070360068E+02
         12                 2           0            39   50     1       0.4249772682E+00      39   50    1      -0.9326767956E+05      0.1383756885E+06      0.1705970769E+06      0.3070360068E+02
         13                 2           0            39   50     1       0.2974840827E+00      39   50    1      -0.6286684023E+05      0.1203665949E+06      0.1383756885E+06      0.3070360068E+02
          0                 3           2            40   53     1       0.6114756374E+01      39   50    1      -0.4158625307E+05      0.1111333718E+06      0.1203665949E+06      0.6114756374E+01
          1                 3           0            40   53     1       0.4280329389E+01      40   53    1      -0.8312966929E+06      0.1015035933E+07      0.1111333718E+06      0.6114756374E+01
          2                 3           0            40   53     1       0.2996230521E+01      40   53    1      -0.5811097214E+06      0.7094242016E+06      0.1015035933E+07      0.6114756374E+01
          3                 3           0            40   53     1       0.2097361329E+01      40   53    1      -0.4059788443E+06      0.4974090178E+06      0.7094242016E+06      0.6114756374E+01
          4                 3           0            40   53     1       0.1468152905E+01      40   53    1      -0.2833872324E+06      0.3517104896E+06      0.4974090178E+06      0.6114756374E+01
                                                   Max.-Head-Change                        Max.-Flux-Residual
  Residual-Control   Outer-Iter.   Inner-Iter.     Column Row Layer    Max.-Head-Change    Column Row Layer    Max.-Flux-Residual            L2-New               L2-Old           Solver-Max-Delh
          5                 3           0            40   53     1       0.1027707016E+01      40   53    1      -0.1975731055E+06      0.2534585508E+06      0.3517104896E+06      0.6114756374E+01
          6                 3           0            40   53     1       0.7193948991E+00      40   53    1      -0.1375032177E+06      0.1895241214E+06      0.2534585508E+06      0.6114756374E+01
          7                 3           0            40   53     1       0.5035764208E+00      40   53    1      -0.9545429695E+05      0.1503690307E+06      0.1895241214E+06      0.6114756374E+01
          8                 3           0            40   53     1       0.3525034886E+00      40   53    1      -0.6602005292E+05      0.1284058673E+06      0.1503690307E+06      0.6114756374E+01
          0                 4           2            54   38     1       0.6989169606E+00      40   53    1      -0.4541608246E+05      0.1173319725E+06      0.1284058673E+06      0.6989169606E+00
          0                 5           2            69   15     1       0.1059315891E+00      40   53    1      -0.8060967259E+04      0.1262142428E+05      0.1173319725E+06      0.1059315891E+00
          0                 6           2            69   15     1       0.1052435975E+00      40   53    1      -0.1430672250E+04      0.2075998468E+04      0.1262142428E+05      0.1052435975E+00

    ------------------------------------------------
       NWT REQUIRED            6 OUTER ITERATIONS 
       AND A TOTAL OF         12 INNER ITERATIONS.
    ------------------------------------------------

 OUTPUT CONTROL FOR STRESS PERIOD    1   TIME STEP  202
    SAVE HEAD FOR ALL LAYERS
    SAVE DRAWDOWN FOR ALL LAYERS
    SAVE BUDGET
    PRINT BUDGET
 UBDSV1 SAVING "         STORAGE" ON UNIT   9 AT TIME STEP202, STRESS PERIOD   1
 UBDSV2 SAVING "   CONSTANT HEAD" ON UNIT   9 AT TIME STEP202, STRESS PERIOD   1
 UBDSV1 SAVING "FLOW RIGHT FACE " ON UNIT   9 AT TIME STEP202, STRESS PERIOD   1
 UBDSV1 SAVING "FLOW FRONT FACE " ON UNIT   9 AT TIME STEP202, STRESS PERIOD   1
 UBDSV4 SAVING "   RIVER LEAKAGE" ON UNIT   9 AT TIME STEP202, STRESS PERIOD   1
 UBDSV3 SAVING "        RECHARGE" ON UNIT   9 AT TIME STEP202, STRESS PERIOD   1

 HEAD WILL BE SAVED ON UNIT   37 AT END OF TIME STEP  202, STRESS PERIOD    1

 DRAWDOWN WILL BE SAVED ON UNIT   38 AT END OF TIME STEP  202, STRESS PERIOD    1
1
  VOLUMETRIC BUDGET FOR ENTIRE MODEL AT END OF TIME STEP  202, STRESS PERIOD   1
  ------------------------------------------------------------------------------

     CUMULATIVE VOLUMES      L**3       RATES FOR THIS TIME STEP      L**3/T
     ------------------                 ------------------------

           IN:                                      IN:
           ---                                      ---
             STORAGE =   178030208.0000               STORAGE =      814048.1250
       CONSTANT HEAD =           0.0000         CONSTANT HEAD =           0.0000
       RIVER LEAKAGE =   733689984.0000         RIVER LEAKAGE =     8701971.0000
            RECHARGE =      180978.5312              RECHARGE =          29.4987

            TOTAL IN =   911901184.0000              TOTAL IN =     9516048.0000

          OUT:                                     OUT:
          ----                                     ----
             STORAGE =   908095616.0000               STORAGE =     9432172.0000
       CONSTANT HEAD =           0.0000         CONSTANT HEAD =           0.0000
       RIVER LEAKAGE =     4006537.0000         RIVER LEAKAGE =       84571.4688
            RECHARGE =           0.0000              RECHARGE =           0.0000

           TOTAL OUT =   912102144.0000             TOTAL OUT =     9516743.0000

            IN - OUT =     -200960.0000              IN - OUT =        -695.0000

 PERCENT DISCREPANCY =          -0.02     PERCENT DISCREPANCY =          -0.01






         TIME SUMMARY AT END OF TIME STEP  202 IN STRESS PERIOD    1
                    SECONDS     MINUTES      HOURS       DAYS        YEARS
                    -----------------------------------------------------------
   TIME STEP LENGTH  86400.      1440.0      24.000      1.0000     2.73785E-03
 STRESS PERIOD TIME 1.74528E+07 2.90880E+05  4848.0      202.00     0.55305    
         TOTAL TIME 1.74528E+07 2.90880E+05  4848.0      202.00     0.55305    
1
 
 SOLVING FOR HEAD 
                                                   Max.-Head-Change                        Max.-Flux-Residual
  Residual-Control   Outer-Iter.   Inner-Iter.     Column Row Layer    Max.-Head-Change    Column Row Layer    Max.-Flux-Residual            L2-New               L2-Old           Solver-Max-Delh
          0                 1           2            37   48     1       0.4482669139E+00      13  125    1       0.2755023572E+06      0.1086728944E+07      0.3660280271E+03      0.4482669139E+00
          0                 2           2            22  119     1       0.5487811937E+00      22  119    1       0.1165765713E+06      0.1586112532E+06      0.1086728944E+07      0.5487811937E+00
          0                 3           2            69   15     1       0.1065688763E+00      22  119    1      -0.1165741407E+05      0.1283787436E+05      0.1586112532E+06      0.1065688763E+00
          0                 4           2            69   15     1       0.1058602801E+00      22  119    1      -0.5828705015E+03      0.6418745634E+03      0.1283787436E+05      0.1058602801E+00

    ------------------------------------------------
       NWT REQUIRED            4 OUTER ITERATIONS 
       AND A TOTAL OF          8 INNER ITERATIONS.
    ------------------------------------------------

 OUTPUT CONTROL FOR STRESS PERIOD    1   TIME STEP  203
    SAVE HEAD FOR ALL LAYERS
    SAVE DRAWDOWN FOR ALL LAYERS
    SAVE BUDGET
    PRINT BUDGET
 UBDSV1 SAVING "         STORAGE" ON UNIT   9 AT TIME STEP203, STRESS PERIOD   1
 UBDSV2 SAVING "   CONSTANT HEAD" ON UNIT   9 AT TIME STEP203, STRESS PERIOD   1
 UBDSV1 SAVING "FLOW RIGHT FACE " ON UNIT   9 AT TIME STEP203, STRESS PERIOD   1
 UBDSV1 SAVING "FLOW FRONT FACE " ON UNIT   9 AT TIME STEP203, STRESS PERIOD   1
 UBDSV4 SAVING "   RIVER LEAKAGE" ON UNIT   9 AT TIME STEP203, STRESS PERIOD   1
 UBDSV3 SAVING "        RECHARGE" ON UNIT   9 AT TIME STEP203, STRESS PERIOD   1

 HEAD WILL BE SAVED ON UNIT   37 AT END OF TIME STEP  203, STRESS PERIOD    1

 DRAWDOWN WILL BE SAVED ON UNIT   38 AT END OF TIME STEP  203, STRESS PERIOD    1
1
  VOLUMETRIC BUDGET FOR ENTIRE MODEL AT END OF TIME STEP  203, STRESS PERIOD   1
  ------------------------------------------------------------------------------

     CUMULATIVE VOLUMES      L**3       RATES FOR THIS TIME STEP      L**3/T
     ------------------                 ------------------------

           IN:                                      IN:
           ---                                      ---
             STORAGE =   178842512.0000               STORAGE =      812296.6250
       CONSTANT HEAD =           0.0000         CONSTANT HEAD =           0.0000
       RIVER LEAKAGE =   743243456.0000         RIVER LEAKAGE =     9553478.0000
            RECHARGE =      181007.1719              RECHARGE =          28.6417

            TOTAL IN =   922266944.0000              TOTAL IN =    10365804.0000

          OUT:                                     OUT:
          ----                                     ----
             STORAGE =   918378624.0000               STORAGE =    10283012.0000
       CONSTANT HEAD =           0.0000         CONSTANT HEAD =           0.0000
       RIVER LEAKAGE =     4089468.5000         RIVER LEAKAGE =       82931.4922
            RECHARGE =           0.0000              RECHARGE =           0.0000

           TOTAL OUT =   922468096.0000             TOTAL OUT =    10365943.0000

            IN - OUT =     -201152.0000              IN - OUT =        -139.0000

 PERCENT DISCREPANCY =          -0.02     PERCENT DISCREPANCY =          -0.00






         TIME SUMMARY AT END OF TIME STEP  203 IN STRESS PERIOD    1
                    SECONDS     MINUTES      HOURS       DAYS        YEARS
                    -----------------------------------------------------------
   TIME STEP LENGTH  86400.      1440.0      24.000      1.0000     2.73785E-03
 STRESS PERIOD TIME 1.75392E+07 2.92320E+05  4872.0      203.00     0.55578    
         TOTAL TIME 1.75392E+07 2.92320E+05  4872.0      203.00     0.55578    
1
 
 SOLVING FOR HEAD 
                                                   Max.-Head-Change                        Max.-Flux-Residual
  Residual-Control   Outer-Iter.   Inner-Iter.     Column Row Layer    Max.-Head-Change    Column Row Layer    Max.-Flux-Residual            L2-New               L2-Old           Solver-Max-Delh
          0                 1           2            34   98     1       0.5790294809E+00      34   98    1       0.5358128245E+06      0.1300177305E+07      0.3215768905E+02      0.5790294809E+00
          0                 2           2            69   15     1       0.1060427651E+00      34   98    1      -0.5358148286E+05      0.1300207277E+06      0.1300177305E+07      0.1060427651E+00
          0                 3           2            69   15     1       0.1053306033E+00      34   98    1      -0.2679074275E+04      0.6501055771E+04      0.1300207277E+06      0.1053306033E+00

    ------------------------------------------------
       NWT REQUIRED            3 OUTER ITERATIONS 
       AND A TOTAL OF          6 INNER ITERATIONS.
    ------------------------------------------------

 OUTPUT CONTROL FOR STRESS PERIOD    1   TIME STEP  204
    SAVE HEAD FOR ALL LAYERS
    SAVE DRAWDOWN FOR ALL LAYERS
    SAVE BUDGET
    PRINT BUDGET
 UBDSV1 SAVING "         STORAGE" ON UNIT   9 AT TIME STEP204, STRESS PERIOD   1
 UBDSV2 SAVING "   CONSTANT HEAD" ON UNIT   9 AT TIME STEP204, STRESS PERIOD   1
 UBDSV1 SAVING "FLOW RIGHT FACE " ON UNIT   9 AT TIME STEP204, STRESS PERIOD   1
 UBDSV1 SAVING "FLOW FRONT FACE " ON UNIT   9 AT TIME STEP204, STRESS PERIOD   1
 UBDSV4 SAVING "   RIVER LEAKAGE" ON UNIT   9 AT TIME STEP204, STRESS PERIOD   1
 UBDSV3 SAVING "        RECHARGE" ON UNIT   9 AT TIME STEP204, STRESS PERIOD   1

 HEAD WILL BE SAVED ON UNIT   37 AT END OF TIME STEP  204, STRESS PERIOD    1

 DRAWDOWN WILL BE SAVED ON UNIT   38 AT END OF TIME STEP  204, STRESS PERIOD    1
1
  VOLUMETRIC BUDGET FOR ENTIRE MODEL AT END OF TIME STEP  204, STRESS PERIOD   1
  ------------------------------------------------------------------------------

     CUMULATIVE VOLUMES      L**3       RATES FOR THIS TIME STEP      L**3/T
     ------------------                 ------------------------

           IN:                                      IN:
           ---                                      ---
             STORAGE =   179651792.0000               STORAGE =      809281.2500
       CONSTANT HEAD =           0.0000         CONSTANT HEAD =           0.0000
       RIVER LEAKAGE =   754766144.0000         RIVER LEAKAGE =    11522672.0000
            RECHARGE =      181034.1719              RECHARGE =          27.0015

            TOTAL IN =   934598976.0000              TOTAL IN =    12331980.0000

          OUT:                                     OUT:
          ----                                     ----
             STORAGE =   930630208.0000               STORAGE =    12251575.0000
       CONSTANT HEAD =           0.0000         CONSTANT HEAD =           0.0000
       RIVER LEAKAGE =     4173163.2500         RIVER LEAKAGE =       83694.6328
            RECHARGE =           0.0000              RECHARGE =           0.0000

           TOTAL OUT =   934803392.0000             TOTAL OUT =    12335270.0000

            IN - OUT =     -204416.0000              IN - OUT =       -3290.0000

 PERCENT DISCREPANCY =          -0.02     PERCENT DISCREPANCY =          -0.03






         TIME SUMMARY AT END OF TIME STEP  204 IN STRESS PERIOD    1
                    SECONDS     MINUTES      HOURS       DAYS        YEARS
                    -----------------------------------------------------------
   TIME STEP LENGTH  86400.      1440.0      24.000      1.0000     2.73785E-03
 STRESS PERIOD TIME 1.76256E+07 2.93760E+05  4896.0      204.00     0.55852    
         TOTAL TIME 1.76256E+07 2.93760E+05  4896.0      204.00     0.55852    
1
 
 SOLVING FOR HEAD 
                                                   Max.-Head-Change                        Max.-Flux-Residual
  Residual-Control   Outer-Iter.   Inner-Iter.     Column Row Layer    Max.-Head-Change    Column Row Layer    Max.-Flux-Residual            L2-New               L2-Old           Solver-Max-Delh
          0                 1           2            42   58     1       0.7354094593E+00      13  125    1       0.3859131899E+06      0.1445214461E+07      0.3249947714E+03      0.7354094593E+00
          0                 2           2            32  110     1       0.3861723038E+02      32  109    1       0.1227027477E+06      0.1881303297E+06      0.1445214461E+07      0.3861723038E+02
          1                 2           0            32  110     1       0.2703206081E+02      32  110    1      -0.6802164532E+07      0.6802177245E+07      0.1881303297E+06      0.3861723038E+02
          2                 2           0            32  110     1       0.1892244224E+02      32  110    1      -0.4752847513E+07      0.4753172383E+07      0.6802177245E+07      0.3861723038E+02
          3                 2           0            32  110     1       0.1324570934E+02      32  110    1      -0.3318723413E+07      0.3320077386E+07      0.4753172383E+07      0.3861723038E+02
          4                 2           0            32  110     1       0.9271996383E+01      32  110    1      -0.2314916006E+07      0.2318155795E+07      0.3320077386E+07      0.3861723038E+02
          5                 2           0            32  110     1       0.6490397358E+01      32  110    1      -0.1612250848E+07      0.1618488355E+07      0.2318155795E+07      0.3861723038E+02
          6                 2           0            32  110     1       0.4543278073E+01      32  110    1      -0.1120385253E+07      0.1131135717E+07      0.1618488355E+07      0.3861723038E+02
          7                 2           0            32  110     1       0.3180294597E+01      32  110    1      -0.7760793460E+06      0.7934505131E+06      0.1131135717E+07      0.3861723038E+02
          8                 2           0            32  110     1       0.2226206180E+01      32  110    1      -0.5350853369E+06      0.5619930202E+06      0.7934505131E+06      0.3861723038E+02
                                                   Max.-Head-Change                        Max.-Flux-Residual
  Residual-Control   Outer-Iter.   Inner-Iter.     Column Row Layer    Max.-Head-Change    Column Row Layer    Max.-Flux-Residual            L2-New               L2-Old           Solver-Max-Delh
          9                 2           0            32  110     1       0.1558344299E+01      32  110    1      -0.3664096786E+06      0.4067097878E+06      0.5619930202E+06      0.3861723038E+02
         10                 2           0            32  110     1       0.1090840991E+01      32  110    1      -0.2483376699E+06      0.3065953105E+06      0.4067097878E+06      0.3861723038E+02
         11                 2           0            32  110     1       0.7635886807E+00      32  110    1      -0.1656882469E+06      0.2462015589E+06      0.3065953105E+06      0.3861723038E+02
         12                 2           0            32  110     1       0.5345120674E+00      32  109    1       0.1200338965E+06      0.2130270540E+06      0.2462015589E+06      0.3861723038E+02
          0                 3           2            32  109     1       0.6380335611E+00      32  109    1       0.1208345519E+06      0.1967294404E+06      0.2130270540E+06      0.6380335611E+00
          0                 4           2            69   15     1       0.1057634009E+00      32  109    1      -0.1207929748E+05      0.1438297199E+05      0.1967294404E+06      0.1057634009E+00
          0                 5           2            69   15     1       0.1050398451E+00      32  109    1      -0.6039648420E+03      0.7190762509E+03      0.1438297199E+05      0.1050398451E+00

    ------------------------------------------------
       NWT REQUIRED            5 OUTER ITERATIONS 
       AND A TOTAL OF         10 INNER ITERATIONS.
    ------------------------------------------------

 OUTPUT CONTROL FOR STRESS PERIOD    1   TIME STEP  205
    SAVE HEAD FOR ALL LAYERS
    SAVE DRAWDOWN FOR ALL LAYERS
    SAVE BUDGET
    PRINT BUDGET
 UBDSV1 SAVING "         STORAGE" ON UNIT   9 AT TIME STEP205, STRESS PERIOD   1
 UBDSV2 SAVING "   CONSTANT HEAD" ON UNIT   9 AT TIME STEP205, STRESS PERIOD   1
 UBDSV1 SAVING "FLOW RIGHT FACE " ON UNIT   9 AT TIME STEP205, STRESS PERIOD   1
 UBDSV1 SAVING "FLOW FRONT FACE " ON UNIT   9 AT TIME STEP205, STRESS PERIOD   1
 UBDSV4 SAVING "   RIVER LEAKAGE" ON UNIT   9 AT TIME STEP205, STRESS PERIOD   1
 UBDSV3 SAVING "        RECHARGE" ON UNIT   9 AT TIME STEP205, STRESS PERIOD   1

 HEAD WILL BE SAVED ON UNIT   37 AT END OF TIME STEP  205, STRESS PERIOD    1

 DRAWDOWN WILL BE SAVED ON UNIT   38 AT END OF TIME STEP  205, STRESS PERIOD    1
1
  VOLUMETRIC BUDGET FOR ENTIRE MODEL AT END OF TIME STEP  205, STRESS PERIOD   1
  ------------------------------------------------------------------------------

     CUMULATIVE VOLUMES      L**3       RATES FOR THIS TIME STEP      L**3/T
     ------------------                 ------------------------

           IN:                                      IN:
           ---                                      ---
             STORAGE =   180459792.0000               STORAGE =      807993.3750
       CONSTANT HEAD =           0.0000         CONSTANT HEAD =           0.0000
       RIVER LEAKAGE =   768212864.0000         RIVER LEAKAGE =    13446736.0000
            RECHARGE =      181059.4219              RECHARGE =          25.2446

            TOTAL IN =   948853696.0000              TOTAL IN =    14254754.0000

          OUT:                                     OUT:
          ----                                     ----
             STORAGE =   944801728.0000               STORAGE =    14171520.0000
       CONSTANT HEAD =           0.0000         CONSTANT HEAD =           0.0000
       RIVER LEAKAGE =     4256615.0000         RIVER LEAKAGE =       83451.9531
            RECHARGE =           0.0000              RECHARGE =           0.0000

           TOTAL OUT =   949058368.0000             TOTAL OUT =    14254972.0000

            IN - OUT =     -204672.0000              IN - OUT =        -218.0000

 PERCENT DISCREPANCY =          -0.02     PERCENT DISCREPANCY =          -0.00






         TIME SUMMARY AT END OF TIME STEP  205 IN STRESS PERIOD    1
                    SECONDS     MINUTES      HOURS       DAYS        YEARS
                    -----------------------------------------------------------
   TIME STEP LENGTH  86400.      1440.0      24.000      1.0000     2.73785E-03
 STRESS PERIOD TIME 1.77120E+07 2.95200E+05  4920.0      205.00     0.56126    
         TOTAL TIME 1.77120E+07 2.95200E+05  4920.0      205.00     0.56126    
1
 
 SOLVING FOR HEAD 
                                                   Max.-Head-Change                        Max.-Flux-Residual
  Residual-Control   Outer-Iter.   Inner-Iter.     Column Row Layer    Max.-Head-Change    Column Row Layer    Max.-Flux-Residual            L2-New               L2-Old           Solver-Max-Delh
          0                 1           2            32  110     1       0.9954096223E+00      34   98    1      -0.6872054175E+06      0.1440636971E+07      0.3600747765E+02      0.9954096223E+00
          0                 2           2            32  111     1       0.5341011394E+02      34   98    1       0.6872088723E+05      0.1451432066E+06      0.1440636971E+07      0.5341011394E+02
          1                 2           0            32  111     1       0.3738707912E+02      32  111    1      -0.9413468142E+07      0.9413471149E+07      0.1451432066E+06      0.5341011394E+02
          2                 2           0            32  111     1       0.2617095494E+02      32  111    1      -0.6578285102E+07      0.6578459452E+07      0.9413471149E+07      0.5341011394E+02
          3                 2           0            32  111     1       0.1831966814E+02      32  111    1      -0.4593996597E+07      0.4594633509E+07      0.6578459452E+07      0.5341011394E+02
          4                 2           0            32  111     1       0.1282376748E+02      32  111    1      -0.3205205916E+07      0.3206659342E+07      0.4594633509E+07      0.5341011394E+02
          5                 2           0            32  111     1       0.8976637085E+01      32  111    1      -0.2233377467E+07      0.2236111779E+07      0.3206659342E+07      0.5341011394E+02
          6                 2           0            32  111     1       0.6283645853E+01      32  111    1      -0.1553104920E+07      0.1557761450E+07      0.2236111779E+07      0.5341011394E+02
          7                 2           0            32  111     1       0.4398552022E+01      32  111    1      -0.1076914142E+07      0.1084402975E+07      0.1557761450E+07      0.5341011394E+02
          8                 2           0            32  111     1       0.3078986363E+01      32  111    1      -0.7435806015E+06      0.7552111543E+06      0.1084402975E+07      0.5341011394E+02
                                                   Max.-Head-Change                        Max.-Flux-Residual
  Residual-Control   Outer-Iter.   Inner-Iter.     Column Row Layer    Max.-Head-Change    Column Row Layer    Max.-Flux-Residual            L2-New               L2-Old           Solver-Max-Delh
          9                 2           0            32  111     1       0.2155290417E+01      32  111    1      -0.5102471265E+06      0.5279049344E+06      0.7552111543E+06      0.5341011394E+02
         10                 2           0            32  111     1       0.1508703266E+01      32  111    1      -0.3469136965E+06      0.3732611308E+06      0.5279049344E+06      0.5341011394E+02
         11                 2           0            32  111     1       0.1056092269E+01      32  111    1      -0.2325802972E+06      0.2711553844E+06      0.3732611308E+06      0.5341011394E+02
         12                 2           0            32  111     1       0.7392645754E+00      32  111    1      -0.1525469190E+06      0.2074253280E+06      0.2711553844E+06      0.5341011394E+02
         13                 2           0            32  111     1       0.5174851940E+00      32  111    1      -0.9652355522E+05      0.1711701643E+06      0.2074253280E+06      0.5341011394E+02
          0                 3           2            32  111     1      -0.3079364847E+00      34   98    1       0.6808834898E+05      0.1530579211E+06      0.1711701643E+06     -0.3079364847E+00
          0                 4           2            69   15     1       0.1084254525E+00      34   98    1       0.3403737362E+04      0.7651604911E+04      0.1530579211E+06      0.1084254525E+00

    ------------------------------------------------
       NWT REQUIRED            4 OUTER ITERATIONS 
       AND A TOTAL OF          8 INNER ITERATIONS.
    ------------------------------------------------

 OUTPUT CONTROL FOR STRESS PERIOD    1   TIME STEP  206
    SAVE HEAD FOR ALL LAYERS
    SAVE DRAWDOWN FOR ALL LAYERS
    SAVE BUDGET
    PRINT BUDGET
 UBDSV1 SAVING "         STORAGE" ON UNIT   9 AT TIME STEP206, STRESS PERIOD   1
 UBDSV2 SAVING "   CONSTANT HEAD" ON UNIT   9 AT TIME STEP206, STRESS PERIOD   1
 UBDSV1 SAVING "FLOW RIGHT FACE " ON UNIT   9 AT TIME STEP206, STRESS PERIOD   1
 UBDSV1 SAVING "FLOW FRONT FACE " ON UNIT   9 AT TIME STEP206, STRESS PERIOD   1
 UBDSV4 SAVING "   RIVER LEAKAGE" ON UNIT   9 AT TIME STEP206, STRESS PERIOD   1
 UBDSV3 SAVING "        RECHARGE" ON UNIT   9 AT TIME STEP206, STRESS PERIOD   1

 HEAD WILL BE SAVED ON UNIT   37 AT END OF TIME STEP  206, STRESS PERIOD    1

 DRAWDOWN WILL BE SAVED ON UNIT   38 AT END OF TIME STEP  206, STRESS PERIOD    1
1
  VOLUMETRIC BUDGET FOR ENTIRE MODEL AT END OF TIME STEP  206, STRESS PERIOD   1
  ------------------------------------------------------------------------------

     CUMULATIVE VOLUMES      L**3       RATES FOR THIS TIME STEP      L**3/T
     ------------------                 ------------------------

           IN:                                      IN:
           ---                                      ---
             STORAGE =   181269440.0000               STORAGE =      809647.8125
       CONSTANT HEAD =           0.0000         CONSTANT HEAD =           0.0000
       RIVER LEAKAGE =   778825280.0000         RIVER LEAKAGE =    10612425.0000
            RECHARGE =      181086.0000              RECHARGE =          26.5752

            TOTAL IN =   960275776.0000              TOTAL IN =    11422100.0000

          OUT:                                     OUT:
          ----                                     ----
             STORAGE =   956133056.0000               STORAGE =    11331307.0000
       CONSTANT HEAD =           0.0000         CONSTANT HEAD =           0.0000
       RIVER LEAKAGE =     4350034.5000         RIVER LEAKAGE =       93419.3906
            RECHARGE =           0.0000              RECHARGE =           0.0000

           TOTAL OUT =   960483072.0000             TOTAL OUT =    11424726.0000

            IN - OUT =     -207296.0000              IN - OUT =       -2626.0000

 PERCENT DISCREPANCY =          -0.02     PERCENT DISCREPANCY =          -0.02






         TIME SUMMARY AT END OF TIME STEP  206 IN STRESS PERIOD    1
                    SECONDS     MINUTES      HOURS       DAYS        YEARS
                    -----------------------------------------------------------
   TIME STEP LENGTH  86400.      1440.0      24.000      1.0000     2.73785E-03
 STRESS PERIOD TIME 1.77984E+07 2.96640E+05  4944.0      206.00     0.56400    
         TOTAL TIME 1.77984E+07 2.96640E+05  4944.0      206.00     0.56400    
1
 
 SOLVING FOR HEAD 
                                                   Max.-Head-Change                        Max.-Flux-Residual
  Residual-Control   Outer-Iter.   Inner-Iter.     Column Row Layer    Max.-Head-Change    Column Row Layer    Max.-Flux-Residual            L2-New               L2-Old           Solver-Max-Delh
          0                 1           2            50   38     1      -0.6231390046E+00      13  125    1       0.2492688541E+06      0.1016122007E+07      0.3824440062E+03     -0.6231390046E+00
          0                 2           2            40   53     1       0.5469330088E+01      13  125    1      -0.2492823952E+05      0.1012780873E+06      0.1016122007E+07      0.5469330088E+01
          1                 2           0            40   53     1       0.3828530996E+01      40   53    1      -0.7421463773E+06      0.1095008336E+07      0.1012780873E+06      0.5469330088E+01
          2                 2           0            40   53     1       0.2679971652E+01      40   53    1      -0.5183671954E+06      0.7648913601E+06      0.1095008336E+07      0.5469330088E+01
          3                 2           0            40   53     1       0.1875980124E+01      40   53    1      -0.3617217707E+06      0.5352830282E+06      0.7648913601E+06      0.5469330088E+01
          4                 2           0            40   53     1       0.1313186065E+01      40   53    1      -0.2520699753E+06      0.3766601267E+06      0.5352830282E+06      0.5469330088E+01
          5                 2           0            40   53     1       0.9192302295E+00      40   53    1      -0.1753137198E+06      0.2685691845E+06      0.3766601267E+06      0.5469330088E+01
          6                 2           0            40   53     1       0.6434611497E+00      40   53    1      -0.1215843418E+06      0.1968537440E+06      0.2685691845E+06      0.5469330088E+01
          7                 2           0            40   53     1       0.4504227971E+00      40   53    1      -0.8397377790E+05      0.1515043409E+06      0.1968537440E+06      0.5469330088E+01
          8                 2           0            40   53     1       0.3152959526E+00      40   53    1      -0.5764638360E+05      0.1249111828E+06      0.1515043409E+06      0.5469330088E+01
                                                   Max.-Head-Change                        Max.-Flux-Residual
  Residual-Control   Outer-Iter.   Inner-Iter.     Column Row Layer    Max.-Head-Change    Column Row Layer    Max.-Flux-Residual            L2-New               L2-Old           Solver-Max-Delh
          0                 3           2            40   53     1      -0.2365093832E+00      40   53    1      -0.3921720791E+05      0.1107883259E+06      0.1249111828E+06     -0.2365093832E+00
          0                 4           2            69   15     1       0.1087117641E+00      40   53    1      -0.6961053332E+04      0.1099898678E+05      0.1107883259E+06      0.1087117641E+00
          0                 5           2            69   15     1       0.1079263817E+00      40   53    1      -0.1235517092E+04      0.1774012149E+04      0.1099898678E+05      0.1079263817E+00

    ------------------------------------------------
       NWT REQUIRED            5 OUTER ITERATIONS 
       AND A TOTAL OF         10 INNER ITERATIONS.
    ------------------------------------------------

 OUTPUT CONTROL FOR STRESS PERIOD    1   TIME STEP  207
    SAVE HEAD FOR ALL LAYERS
    SAVE DRAWDOWN FOR ALL LAYERS
    SAVE BUDGET
    PRINT BUDGET
 UBDSV1 SAVING "         STORAGE" ON UNIT   9 AT TIME STEP207, STRESS PERIOD   1
 UBDSV2 SAVING "   CONSTANT HEAD" ON UNIT   9 AT TIME STEP207, STRESS PERIOD   1
 UBDSV1 SAVING "FLOW RIGHT FACE " ON UNIT   9 AT TIME STEP207, STRESS PERIOD   1
 UBDSV1 SAVING "FLOW FRONT FACE " ON UNIT   9 AT TIME STEP207, STRESS PERIOD   1
 UBDSV4 SAVING "   RIVER LEAKAGE" ON UNIT   9 AT TIME STEP207, STRESS PERIOD   1
 UBDSV3 SAVING "        RECHARGE" ON UNIT   9 AT TIME STEP207, STRESS PERIOD   1

 HEAD WILL BE SAVED ON UNIT   37 AT END OF TIME STEP  207, STRESS PERIOD    1

 DRAWDOWN WILL BE SAVED ON UNIT   38 AT END OF TIME STEP  207, STRESS PERIOD    1
1
  VOLUMETRIC BUDGET FOR ENTIRE MODEL AT END OF TIME STEP  207, STRESS PERIOD   1
  ------------------------------------------------------------------------------

     CUMULATIVE VOLUMES      L**3       RATES FOR THIS TIME STEP      L**3/T
     ------------------                 ------------------------

           IN:                                      IN:
           ---                                      ---
             STORAGE =   182081248.0000               STORAGE =      811806.2500
       CONSTANT HEAD =           0.0000         CONSTANT HEAD =           0.0000
       RIVER LEAKAGE =   786513728.0000         RIVER LEAKAGE =     7688454.5000
            RECHARGE =      181113.2188              RECHARGE =          27.2154

            TOTAL IN =   968776064.0000              TOTAL IN =     8500288.0000

          OUT:                                     OUT:
          ----                                     ----
             STORAGE =   964533440.0000               STORAGE =     8400361.0000
       CONSTANT HEAD =           0.0000         CONSTANT HEAD =           0.0000
       RIVER LEAKAGE =     4450665.5000         RIVER LEAKAGE =      100630.8125
            RECHARGE =           0.0000              RECHARGE =           0.0000

           TOTAL OUT =   968984128.0000             TOTAL OUT =     8500992.0000

            IN - OUT =     -208064.0000              IN - OUT =        -704.0000

 PERCENT DISCREPANCY =          -0.02     PERCENT DISCREPANCY =          -0.01






         TIME SUMMARY AT END OF TIME STEP  207 IN STRESS PERIOD    1
                    SECONDS     MINUTES      HOURS       DAYS        YEARS
                    -----------------------------------------------------------
   TIME STEP LENGTH  86400.      1440.0      24.000      1.0000     2.73785E-03
 STRESS PERIOD TIME 1.78848E+07 2.98080E+05  4968.0      207.00     0.56674    
         TOTAL TIME 1.78848E+07 2.98080E+05  4968.0      207.00     0.56674    
1
 
 SOLVING FOR HEAD 
                                                   Max.-Head-Change                        Max.-Flux-Residual
  Residual-Control   Outer-Iter.   Inner-Iter.     Column Row Layer    Max.-Head-Change    Column Row Layer    Max.-Flux-Residual            L2-New               L2-Old           Solver-Max-Delh
          0                 1           2            38   71     1      -0.7301221725E+00      26  115    1      -0.2080460347E+06      0.7893560057E+06      0.3122140495E+03     -0.7301221725E+00
          0                 2           2            69   15     1       0.1090014668E+00      26  115    1       0.2080453350E+05      0.7909313463E+05      0.7893560057E+06      0.1090014668E+00
          0                 3           2            69   15     1       0.1082018224E+00      26  115    1       0.1040200342E+04      0.3992066242E+04      0.7909313463E+05      0.1082018224E+00

    ------------------------------------------------
       NWT REQUIRED            3 OUTER ITERATIONS 
       AND A TOTAL OF          6 INNER ITERATIONS.
    ------------------------------------------------

 OUTPUT CONTROL FOR STRESS PERIOD    1   TIME STEP  208
    SAVE HEAD FOR ALL LAYERS
    SAVE DRAWDOWN FOR ALL LAYERS
    SAVE BUDGET
    PRINT BUDGET
 UBDSV1 SAVING "         STORAGE" ON UNIT   9 AT TIME STEP208, STRESS PERIOD   1
 UBDSV2 SAVING "   CONSTANT HEAD" ON UNIT   9 AT TIME STEP208, STRESS PERIOD   1
 UBDSV1 SAVING "FLOW RIGHT FACE " ON UNIT   9 AT TIME STEP208, STRESS PERIOD   1
 UBDSV1 SAVING "FLOW FRONT FACE " ON UNIT   9 AT TIME STEP208, STRESS PERIOD   1
 UBDSV4 SAVING "   RIVER LEAKAGE" ON UNIT   9 AT TIME STEP208, STRESS PERIOD   1
 UBDSV3 SAVING "        RECHARGE" ON UNIT   9 AT TIME STEP208, STRESS PERIOD   1

 HEAD WILL BE SAVED ON UNIT   37 AT END OF TIME STEP  208, STRESS PERIOD    1

 DRAWDOWN WILL BE SAVED ON UNIT   38 AT END OF TIME STEP  208, STRESS PERIOD    1
1
  VOLUMETRIC BUDGET FOR ENTIRE MODEL AT END OF TIME STEP  208, STRESS PERIOD   1
  ------------------------------------------------------------------------------

     CUMULATIVE VOLUMES      L**3       RATES FOR THIS TIME STEP      L**3/T
     ------------------                 ------------------------

           IN:                                      IN:
           ---                                      ---
             STORAGE =   182894320.0000               STORAGE =      813067.5000
       CONSTANT HEAD =           0.0000         CONSTANT HEAD =           0.0000
       RIVER LEAKAGE =   791353664.0000         RIVER LEAKAGE =     4839924.5000
            RECHARGE =      181143.5781              RECHARGE =          30.3656

            TOTAL IN =   974429120.0000              TOTAL IN =     5653022.5000

          OUT:                                     OUT:
          ----                                     ----
             STORAGE =   970084416.0000               STORAGE =     5550972.5000
       CONSTANT HEAD =           0.0000         CONSTANT HEAD =           0.0000
       RIVER LEAKAGE =     4552962.0000         RIVER LEAKAGE =      102296.7266
            RECHARGE =           0.0000              RECHARGE =           0.0000

           TOTAL OUT =   974637376.0000             TOTAL OUT =     5653269.0000

            IN - OUT =     -208256.0000              IN - OUT =        -246.5000

 PERCENT DISCREPANCY =          -0.02     PERCENT DISCREPANCY =          -0.00






         TIME SUMMARY AT END OF TIME STEP  208 IN STRESS PERIOD    1
                    SECONDS     MINUTES      HOURS       DAYS        YEARS
                    -----------------------------------------------------------
   TIME STEP LENGTH  86400.      1440.0      24.000      1.0000     2.73785E-03
 STRESS PERIOD TIME 1.79712E+07 2.99520E+05  4992.0      208.00     0.56947    
         TOTAL TIME 1.79712E+07 2.99520E+05  4992.0      208.00     0.56947    
1
 
 SOLVING FOR HEAD 
                                                   Max.-Head-Change                        Max.-Flux-Residual
  Residual-Control   Outer-Iter.   Inner-Iter.     Column Row Layer    Max.-Head-Change    Column Row Layer    Max.-Flux-Residual            L2-New               L2-Old           Solver-Max-Delh
          0                 1           2            63   17     1       0.4283576781E+00      13  125    1       0.1588992523E+06      0.5880670333E+06      0.1995763186E+03      0.4283576781E+00
          0                 2           2            69   15     1       0.1092329041E+00      13  125    1      -0.1589048190E+05      0.5880778621E+05      0.5880670333E+06      0.1092329041E+00
          0                 3           2            69   15     1       0.1084181232E+00      13  125    1      -0.7945278431E+03      0.2940396663E+04      0.5880778621E+05      0.1084181232E+00

    ------------------------------------------------
       NWT REQUIRED            3 OUTER ITERATIONS 
       AND A TOTAL OF          6 INNER ITERATIONS.
    ------------------------------------------------

 OUTPUT CONTROL FOR STRESS PERIOD    1   TIME STEP  209
    SAVE HEAD FOR ALL LAYERS
    SAVE DRAWDOWN FOR ALL LAYERS
    SAVE BUDGET
    PRINT BUDGET
 UBDSV1 SAVING "         STORAGE" ON UNIT   9 AT TIME STEP209, STRESS PERIOD   1
 UBDSV2 SAVING "   CONSTANT HEAD" ON UNIT   9 AT TIME STEP209, STRESS PERIOD   1
 UBDSV1 SAVING "FLOW RIGHT FACE " ON UNIT   9 AT TIME STEP209, STRESS PERIOD   1
 UBDSV1 SAVING "FLOW FRONT FACE " ON UNIT   9 AT TIME STEP209, STRESS PERIOD   1
 UBDSV4 SAVING "   RIVER LEAKAGE" ON UNIT   9 AT TIME STEP209, STRESS PERIOD   1
 UBDSV3 SAVING "        RECHARGE" ON UNIT   9 AT TIME STEP209, STRESS PERIOD   1

 HEAD WILL BE SAVED ON UNIT   37 AT END OF TIME STEP  209, STRESS PERIOD    1

 DRAWDOWN WILL BE SAVED ON UNIT   38 AT END OF TIME STEP  209, STRESS PERIOD    1
1
  VOLUMETRIC BUDGET FOR ENTIRE MODEL AT END OF TIME STEP  209, STRESS PERIOD   1
  ------------------------------------------------------------------------------

     CUMULATIVE VOLUMES      L**3       RATES FOR THIS TIME STEP      L**3/T
     ------------------                 ------------------------

           IN:                                      IN:
           ---                                      ---
             STORAGE =   183702048.0000               STORAGE =      807725.5625
       CONSTANT HEAD =           0.0000         CONSTANT HEAD =           0.0000
       RIVER LEAKAGE =   796590848.0000         RIVER LEAKAGE =     5237184.0000
            RECHARGE =      181179.5156              RECHARGE =          35.9365

            TOTAL IN =   980474112.0000              TOTAL IN =     6044945.5000

          OUT:                                     OUT:
          ----                                     ----
             STORAGE =   976032512.0000               STORAGE =     5948084.5000
       CONSTANT HEAD =           0.0000         CONSTANT HEAD =           0.0000
       RIVER LEAKAGE =     4651227.5000         RIVER LEAKAGE =       98265.6797
            RECHARGE =           0.0000              RECHARGE =           0.0000

           TOTAL OUT =   980683712.0000             TOTAL OUT =     6046350.0000

            IN - OUT =     -209600.0000              IN - OUT =       -1404.5000

 PERCENT DISCREPANCY =          -0.02     PERCENT DISCREPANCY =          -0.02






         TIME SUMMARY AT END OF TIME STEP  209 IN STRESS PERIOD    1
                    SECONDS     MINUTES      HOURS       DAYS        YEARS
                    -----------------------------------------------------------
   TIME STEP LENGTH  86400.      1440.0      24.000      1.0000     2.73785E-03
 STRESS PERIOD TIME 1.80576E+07 3.00960E+05  5016.0      209.00     0.57221    
         TOTAL TIME 1.80576E+07 3.00960E+05  5016.0      209.00     0.57221    
1
 
 SOLVING FOR HEAD 
                                                   Max.-Head-Change                        Max.-Flux-Residual
  Residual-Control   Outer-Iter.   Inner-Iter.     Column Row Layer    Max.-Head-Change    Column Row Layer    Max.-Flux-Residual            L2-New               L2-Old           Solver-Max-Delh
          0                 1           2            38   71     1       0.7156212587E+00      13  125    1       0.2650903983E+06      0.1102979890E+07      0.1470068401E+03      0.7156212587E+00
          0                 2           2            13  125     1       0.3282512379E+00      13  125    1       0.1467287573E+06      0.1817891479E+06      0.1102979890E+07      0.3282512379E+00
          0                 3           2            69   15     1       0.1085769084E+00      13  125    1      -0.1467264844E+05      0.1563837608E+05      0.1817891479E+06      0.1085769084E+00
          0                 4           2            69   15     1       0.1077524432E+00      13  125    1      -0.7336320803E+03      0.7819032618E+03      0.1563837608E+05      0.1077524432E+00

    ------------------------------------------------
       NWT REQUIRED            4 OUTER ITERATIONS 
       AND A TOTAL OF          8 INNER ITERATIONS.
    ------------------------------------------------

 OUTPUT CONTROL FOR STRESS PERIOD    1   TIME STEP  210
    SAVE HEAD FOR ALL LAYERS
    SAVE DRAWDOWN FOR ALL LAYERS
    SAVE BUDGET
    PRINT BUDGET
 UBDSV1 SAVING "         STORAGE" ON UNIT   9 AT TIME STEP210, STRESS PERIOD   1
 UBDSV2 SAVING "   CONSTANT HEAD" ON UNIT   9 AT TIME STEP210, STRESS PERIOD   1
 UBDSV1 SAVING "FLOW RIGHT FACE " ON UNIT   9 AT TIME STEP210, STRESS PERIOD   1
 UBDSV1 SAVING "FLOW FRONT FACE " ON UNIT   9 AT TIME STEP210, STRESS PERIOD   1
 UBDSV4 SAVING "   RIVER LEAKAGE" ON UNIT   9 AT TIME STEP210, STRESS PERIOD   1
 UBDSV3 SAVING "        RECHARGE" ON UNIT   9 AT TIME STEP210, STRESS PERIOD   1

 HEAD WILL BE SAVED ON UNIT   37 AT END OF TIME STEP  210, STRESS PERIOD    1

 DRAWDOWN WILL BE SAVED ON UNIT   38 AT END OF TIME STEP  210, STRESS PERIOD    1
1
  VOLUMETRIC BUDGET FOR ENTIRE MODEL AT END OF TIME STEP  210, STRESS PERIOD   1
  ------------------------------------------------------------------------------

     CUMULATIVE VOLUMES      L**3       RATES FOR THIS TIME STEP      L**3/T
     ------------------                 ------------------------

           IN:                                      IN:
           ---                                      ---
             STORAGE =   184508672.0000               STORAGE =      806621.3125
       CONSTANT HEAD =           0.0000         CONSTANT HEAD =           0.0000
       RIVER LEAKAGE =   804403328.0000         RIVER LEAKAGE =     7812500.5000
            RECHARGE =      181222.5938              RECHARGE =          43.0833

            TOTAL IN =   989093248.0000              TOTAL IN =     8619165.0000

          OUT:                                     OUT:
          ----                                     ----
             STORAGE =   984556608.0000               STORAGE =     8524126.0000
       CONSTANT HEAD =           0.0000         CONSTANT HEAD =           0.0000
       RIVER LEAKAGE =     4746442.5000         RIVER LEAKAGE =       95214.8594
            RECHARGE =           0.0000              RECHARGE =           0.0000

           TOTAL OUT =   989303040.0000             TOTAL OUT =     8619341.0000

            IN - OUT =     -209792.0000              IN - OUT =        -176.0000

 PERCENT DISCREPANCY =          -0.02     PERCENT DISCREPANCY =          -0.00






         TIME SUMMARY AT END OF TIME STEP  210 IN STRESS PERIOD    1
                    SECONDS     MINUTES      HOURS       DAYS        YEARS
                    -----------------------------------------------------------
   TIME STEP LENGTH  86400.      1440.0      24.000      1.0000     2.73785E-03
 STRESS PERIOD TIME 1.81440E+07 3.02400E+05  5040.0      210.00     0.57495    
         TOTAL TIME 1.81440E+07 3.02400E+05  5040.0      210.00     0.57495    
1
 
 SOLVING FOR HEAD 
                                                   Max.-Head-Change                        Max.-Flux-Residual
  Residual-Control   Outer-Iter.   Inner-Iter.     Column Row Layer    Max.-Head-Change    Column Row Layer    Max.-Flux-Residual            L2-New               L2-Old           Solver-Max-Delh
          0                 1           2            61   30     1       0.8808722324E+00      26  115    1      -0.2268930905E+06      0.8323236683E+06      0.3914866199E+02      0.8808722324E+00
          0                 2           2             2  131     1       0.5674392737E+01      26  115    1       0.2268902836E+05      0.8353513943E+05      0.8323236683E+06      0.5674392737E+01
          1                 2           0             2  131     1       0.3972074848E+01       2  131    1      -0.6279842206E+06      0.6279981740E+06      0.8353513943E+05      0.5674392737E+01
          2                 2           0             2  131     1       0.2780452347E+01       2  131    1      -0.4341795684E+06      0.4350720307E+06      0.6279981740E+06      0.5674392737E+01
          3                 2           0             2  131     1       0.1946316609E+01       2  131    1      -0.2985482349E+06      0.3018385150E+06      0.4350720307E+06      0.5674392737E+01
          4                 2           0             2  131     1       0.1362421603E+01       2  131    1      -0.2036193331E+06      0.2111945531E+06      0.3018385150E+06      0.5674392737E+01
          5                 2           0             2  131     1       0.9536951062E+00       2  131    1      -0.1371248591E+06      0.1514018189E+06      0.2111945531E+06      0.5674392737E+01
          6                 2           0             2  131     1       0.6675865629E+00       2  131    1      -0.9057872846E+05      0.1143951265E+06      0.1514018189E+06      0.5674392737E+01
          7                 2           0             2  131     1       0.4673105861E+00       2  131    1      -0.5799643771E+05      0.9390177892E+05      0.1143951265E+06      0.5674392737E+01
          0                 3           2             2  131     1      -0.2934267643E+00       2  131    1      -0.3518883466E+05      0.8433047579E+05      0.9390177892E+05     -0.2934267643E+00
                                                   Max.-Head-Change                        Max.-Flux-Residual
  Residual-Control   Outer-Iter.   Inner-Iter.     Column Row Layer    Max.-Head-Change    Column Row Layer    Max.-Flux-Residual            L2-New               L2-Old           Solver-Max-Delh
          0                 4           2            69   15     1       0.1077925723E+00       2  131    1      -0.1759441053E+04      0.4215830690E+04      0.8433047579E+05      0.1077925723E+00

    ------------------------------------------------
       NWT REQUIRED            4 OUTER ITERATIONS 
       AND A TOTAL OF          8 INNER ITERATIONS.
    ------------------------------------------------

 OUTPUT CONTROL FOR STRESS PERIOD    1   TIME STEP  211
    SAVE HEAD FOR ALL LAYERS
    SAVE DRAWDOWN FOR ALL LAYERS
    SAVE BUDGET
    PRINT BUDGET
 UBDSV1 SAVING "         STORAGE" ON UNIT   9 AT TIME STEP211, STRESS PERIOD   1
 UBDSV2 SAVING "   CONSTANT HEAD" ON UNIT   9 AT TIME STEP211, STRESS PERIOD   1
 UBDSV1 SAVING "FLOW RIGHT FACE " ON UNIT   9 AT TIME STEP211, STRESS PERIOD   1
 UBDSV1 SAVING "FLOW FRONT FACE " ON UNIT   9 AT TIME STEP211, STRESS PERIOD   1
 UBDSV4 SAVING "   RIVER LEAKAGE" ON UNIT   9 AT TIME STEP211, STRESS PERIOD   1
 UBDSV3 SAVING "        RECHARGE" ON UNIT   9 AT TIME STEP211, STRESS PERIOD   1

 HEAD WILL BE SAVED ON UNIT   37 AT END OF TIME STEP  211, STRESS PERIOD    1

 DRAWDOWN WILL BE SAVED ON UNIT   38 AT END OF TIME STEP  211, STRESS PERIOD    1
1
  VOLUMETRIC BUDGET FOR ENTIRE MODEL AT END OF TIME STEP  211, STRESS PERIOD   1
  ------------------------------------------------------------------------------

     CUMULATIVE VOLUMES      L**3       RATES FOR THIS TIME STEP      L**3/T
     ------------------                 ------------------------

           IN:                                      IN:
           ---                                      ---
             STORAGE =   185320736.0000               STORAGE =      812058.5625
       CONSTANT HEAD =           0.0000         CONSTANT HEAD =           0.0000
       RIVER LEAKAGE =   809167104.0000         RIVER LEAKAGE =     4763808.0000
            RECHARGE =      181273.2031              RECHARGE =          50.6150

            TOTAL IN =   994669056.0000              TOTAL IN =     5575917.0000

          OUT:                                     OUT:
          ----                                     ----
             STORAGE =   990028864.0000               STORAGE =     5472286.5000
       CONSTANT HEAD =           0.0000         CONSTANT HEAD =           0.0000
       RIVER LEAKAGE =     4850214.0000         RIVER LEAKAGE =      103771.5625
            RECHARGE =           0.0000              RECHARGE =           0.0000

           TOTAL OUT =   994879104.0000             TOTAL OUT =     5576058.0000

            IN - OUT =     -210048.0000              IN - OUT =        -141.0000

 PERCENT DISCREPANCY =          -0.02     PERCENT DISCREPANCY =          -0.00






         TIME SUMMARY AT END OF TIME STEP  211 IN STRESS PERIOD    1
                    SECONDS     MINUTES      HOURS       DAYS        YEARS
                    -----------------------------------------------------------
   TIME STEP LENGTH  86400.      1440.0      24.000      1.0000     2.73785E-03
 STRESS PERIOD TIME 1.82304E+07 3.03840E+05  5064.0      211.00     0.57769    
         TOTAL TIME 1.82304E+07 3.03840E+05  5064.0      211.00     0.57769    
1
 
 SOLVING FOR HEAD 
                                                   Max.-Head-Change                        Max.-Flux-Residual
  Residual-Control   Outer-Iter.   Inner-Iter.     Column Row Layer    Max.-Head-Change    Column Row Layer    Max.-Flux-Residual            L2-New               L2-Old           Solver-Max-Delh
          0                 1           2            63   16     1       0.4171432417E+00      38   82    1       0.1116458205E+06      0.4875557775E+06      0.2107260883E+03      0.4171432417E+00
          0                 2           2            69   15     1       0.1086974407E+00      38   82    1      -0.1116476722E+05      0.4875641305E+05      0.4875557775E+06      0.1086974407E+00
          0                 3           2            69   15     1       0.1078465735E+00      38   82    1      -0.5582394581E+03      0.2437826590E+04      0.4875641305E+05      0.1078465735E+00

    ------------------------------------------------
       NWT REQUIRED            3 OUTER ITERATIONS 
       AND A TOTAL OF          6 INNER ITERATIONS.
    ------------------------------------------------

 OUTPUT CONTROL FOR STRESS PERIOD    1   TIME STEP  212
    SAVE HEAD FOR ALL LAYERS
    SAVE DRAWDOWN FOR ALL LAYERS
    SAVE BUDGET
    PRINT BUDGET
 UBDSV1 SAVING "         STORAGE" ON UNIT   9 AT TIME STEP212, STRESS PERIOD   1
 UBDSV2 SAVING "   CONSTANT HEAD" ON UNIT   9 AT TIME STEP212, STRESS PERIOD   1
 UBDSV1 SAVING "FLOW RIGHT FACE " ON UNIT   9 AT TIME STEP212, STRESS PERIOD   1
 UBDSV1 SAVING "FLOW FRONT FACE " ON UNIT   9 AT TIME STEP212, STRESS PERIOD   1
 UBDSV4 SAVING "   RIVER LEAKAGE" ON UNIT   9 AT TIME STEP212, STRESS PERIOD   1
 UBDSV3 SAVING "        RECHARGE" ON UNIT   9 AT TIME STEP212, STRESS PERIOD   1

 HEAD WILL BE SAVED ON UNIT   37 AT END OF TIME STEP  212, STRESS PERIOD    1

 DRAWDOWN WILL BE SAVED ON UNIT   38 AT END OF TIME STEP  212, STRESS PERIOD    1
1
  VOLUMETRIC BUDGET FOR ENTIRE MODEL AT END OF TIME STEP  212, STRESS PERIOD   1
  ------------------------------------------------------------------------------

     CUMULATIVE VOLUMES      L**3       RATES FOR THIS TIME STEP      L**3/T
     ------------------                 ------------------------

           IN:                                      IN:
           ---                                      ---
             STORAGE =   186127792.0000               STORAGE =      807056.5625
       CONSTANT HEAD =           0.0000         CONSTANT HEAD =           0.0000
       RIVER LEAKAGE =   813545344.0000         RIVER LEAKAGE =     4378256.0000
            RECHARGE =      181330.6250              RECHARGE =          57.4238

            TOTAL IN =   999854464.0000              TOTAL IN =     5185370.0000

          OUT:                                     OUT:
          ----                                     ----
             STORAGE =   995112768.0000               STORAGE =     5083934.0000
       CONSTANT HEAD =           0.0000         CONSTANT HEAD =           0.0000
       RIVER LEAKAGE =     4952552.0000         RIVER LEAKAGE =      102337.8516
            RECHARGE =           0.0000              RECHARGE =           0.0000

           TOTAL OUT =  1000065344.0000             TOTAL OUT =     5186272.0000

            IN - OUT =     -210880.0000              IN - OUT =        -902.0000

 PERCENT DISCREPANCY =          -0.02     PERCENT DISCREPANCY =          -0.02






         TIME SUMMARY AT END OF TIME STEP  212 IN STRESS PERIOD    1
                    SECONDS     MINUTES      HOURS       DAYS        YEARS
                    -----------------------------------------------------------
   TIME STEP LENGTH  86400.      1440.0      24.000      1.0000     2.73785E-03
 STRESS PERIOD TIME 1.83168E+07 3.05280E+05  5088.0      212.00     0.58042    
         TOTAL TIME 1.83168E+07 3.05280E+05  5088.0      212.00     0.58042    
1
 
 SOLVING FOR HEAD 
                                                   Max.-Head-Change                        Max.-Flux-Residual
  Residual-Control   Outer-Iter.   Inner-Iter.     Column Row Layer    Max.-Head-Change    Column Row Layer    Max.-Flux-Residual            L2-New               L2-Old           Solver-Max-Delh
          0                 1           2            63   16     1       0.4171291552E+00      38   82    1       0.1692400464E+06      0.7968313990E+06      0.1218871624E+03      0.4171291552E+00
          0                 2           2            69   15     1       0.1087113936E+00      38   82    1      -0.1692443008E+05      0.7968423810E+05      0.7968313990E+06      0.1087113936E+00
          0                 3           2            69   15     1       0.1078470584E+00      38   82    1      -0.8462242468E+03      0.3984218486E+04      0.7968423810E+05      0.1078470584E+00

    ------------------------------------------------
       NWT REQUIRED            3 OUTER ITERATIONS 
       AND A TOTAL OF          6 INNER ITERATIONS.
    ------------------------------------------------

 OUTPUT CONTROL FOR STRESS PERIOD    1   TIME STEP  213
    SAVE HEAD FOR ALL LAYERS
    SAVE DRAWDOWN FOR ALL LAYERS
    SAVE BUDGET
    PRINT BUDGET
 UBDSV1 SAVING "         STORAGE" ON UNIT   9 AT TIME STEP213, STRESS PERIOD   1
 UBDSV2 SAVING "   CONSTANT HEAD" ON UNIT   9 AT TIME STEP213, STRESS PERIOD   1
 UBDSV1 SAVING "FLOW RIGHT FACE " ON UNIT   9 AT TIME STEP213, STRESS PERIOD   1
 UBDSV1 SAVING "FLOW FRONT FACE " ON UNIT   9 AT TIME STEP213, STRESS PERIOD   1
 UBDSV4 SAVING "   RIVER LEAKAGE" ON UNIT   9 AT TIME STEP213, STRESS PERIOD   1
 UBDSV3 SAVING "        RECHARGE" ON UNIT   9 AT TIME STEP213, STRESS PERIOD   1

 HEAD WILL BE SAVED ON UNIT   37 AT END OF TIME STEP  213, STRESS PERIOD    1

 DRAWDOWN WILL BE SAVED ON UNIT   38 AT END OF TIME STEP  213, STRESS PERIOD    1
1
  VOLUMETRIC BUDGET FOR ENTIRE MODEL AT END OF TIME STEP  213, STRESS PERIOD   1
  ------------------------------------------------------------------------------

     CUMULATIVE VOLUMES      L**3       RATES FOR THIS TIME STEP      L**3/T
     ------------------                 ------------------------

           IN:                                      IN:
           ---                                      ---
             STORAGE =   186933168.0000               STORAGE =      805382.0000
       CONSTANT HEAD =           0.0000         CONSTANT HEAD =           0.0000
       RIVER LEAKAGE =   819672576.0000         RIVER LEAKAGE =     6127235.0000
            RECHARGE =      181393.3750              RECHARGE =          62.7428

            TOTAL IN =  1006787136.0000              TOTAL IN =     6932679.5000

          OUT:                                     OUT:
          ----                                     ----
             STORAGE =  1001948288.0000               STORAGE =     6835541.0000
       CONSTANT HEAD =           0.0000         CONSTANT HEAD =           0.0000
       RIVER LEAKAGE =     5051911.5000         RIVER LEAKAGE =       99359.4297
            RECHARGE =           0.0000              RECHARGE =           0.0000

           TOTAL OUT =  1007000192.0000             TOTAL OUT =     6934900.5000

            IN - OUT =     -213056.0000              IN - OUT =       -2221.0000

 PERCENT DISCREPANCY =          -0.02     PERCENT DISCREPANCY =          -0.03






         TIME SUMMARY AT END OF TIME STEP  213 IN STRESS PERIOD    1
                    SECONDS     MINUTES      HOURS       DAYS        YEARS
                    -----------------------------------------------------------
   TIME STEP LENGTH  86400.      1440.0      24.000      1.0000     2.73785E-03
 STRESS PERIOD TIME 1.84032E+07 3.06720E+05  5112.0      213.00     0.58316    
         TOTAL TIME 1.84032E+07 3.06720E+05  5112.0      213.00     0.58316    
1
 
 SOLVING FOR HEAD 
                                                   Max.-Head-Change                        Max.-Flux-Residual
  Residual-Control   Outer-Iter.   Inner-Iter.     Column Row Layer    Max.-Head-Change    Column Row Layer    Max.-Flux-Residual            L2-New               L2-Old           Solver-Max-Delh
          0                 1           2            32  109     1       0.6745582453E+00      26  115    1       0.3787528789E+06      0.1639247909E+07      0.1991834992E+03      0.6745582453E+00
          0                 2           2            69   15     1       0.1086727191E+00      26  115    1      -0.3787530075E+05      0.1639290898E+06      0.1639247909E+07      0.1086727191E+00
          0                 3           2            69   15     1       0.1077953412E+00      26  115    1      -0.1893764169E+04      0.8196476336E+04      0.1639290898E+06      0.1077953412E+00

    ------------------------------------------------
       NWT REQUIRED            3 OUTER ITERATIONS 
       AND A TOTAL OF          6 INNER ITERATIONS.
    ------------------------------------------------

 OUTPUT CONTROL FOR STRESS PERIOD    1   TIME STEP  214
    SAVE HEAD FOR ALL LAYERS
    SAVE DRAWDOWN FOR ALL LAYERS
    SAVE BUDGET
    PRINT BUDGET
 UBDSV1 SAVING "         STORAGE" ON UNIT   9 AT TIME STEP214, STRESS PERIOD   1
 UBDSV2 SAVING "   CONSTANT HEAD" ON UNIT   9 AT TIME STEP214, STRESS PERIOD   1
 UBDSV1 SAVING "FLOW RIGHT FACE " ON UNIT   9 AT TIME STEP214, STRESS PERIOD   1
 UBDSV1 SAVING "FLOW FRONT FACE " ON UNIT   9 AT TIME STEP214, STRESS PERIOD   1
 UBDSV4 SAVING "   RIVER LEAKAGE" ON UNIT   9 AT TIME STEP214, STRESS PERIOD   1
 UBDSV3 SAVING "        RECHARGE" ON UNIT   9 AT TIME STEP214, STRESS PERIOD   1

 HEAD WILL BE SAVED ON UNIT   37 AT END OF TIME STEP  214, STRESS PERIOD    1

 DRAWDOWN WILL BE SAVED ON UNIT   38 AT END OF TIME STEP  214, STRESS PERIOD    1
1
  VOLUMETRIC BUDGET FOR ENTIRE MODEL AT END OF TIME STEP  214, STRESS PERIOD   1
  ------------------------------------------------------------------------------

     CUMULATIVE VOLUMES      L**3       RATES FOR THIS TIME STEP      L**3/T
     ------------------                 ------------------------

           IN:                                      IN:
           ---                                      ---
             STORAGE =   187737616.0000               STORAGE =      804452.6875
       CONSTANT HEAD =           0.0000         CONSTANT HEAD =           0.0000
       RIVER LEAKAGE =   831025280.0000         RIVER LEAKAGE =    11352724.0000
            RECHARGE =      181459.5781              RECHARGE =          66.2064

            TOTAL IN =  1018944320.0000              TOTAL IN =    12157243.0000

          OUT:                                     OUT:
          ----                                     ----
             STORAGE =  1014012544.0000               STORAGE =    12064285.0000
       CONSTANT HEAD =           0.0000         CONSTANT HEAD =           0.0000
       RIVER LEAKAGE =     5148900.0000         RIVER LEAKAGE =       96988.6562
            RECHARGE =           0.0000              RECHARGE =           0.0000

           TOTAL OUT =  1019161472.0000             TOTAL OUT =    12161274.0000

            IN - OUT =     -217152.0000              IN - OUT =       -4031.0000

 PERCENT DISCREPANCY =          -0.02     PERCENT DISCREPANCY =          -0.03






         TIME SUMMARY AT END OF TIME STEP  214 IN STRESS PERIOD    1
                    SECONDS     MINUTES      HOURS       DAYS        YEARS
                    -----------------------------------------------------------
   TIME STEP LENGTH  86400.      1440.0      24.000      1.0000     2.73785E-03
 STRESS PERIOD TIME 1.84896E+07 3.08160E+05  5136.0      214.00     0.58590    
         TOTAL TIME 1.84896E+07 3.08160E+05  5136.0      214.00     0.58590    
1
 
 SOLVING FOR HEAD 
                                                   Max.-Head-Change                        Max.-Flux-Residual
  Residual-Control   Outer-Iter.   Inner-Iter.     Column Row Layer    Max.-Head-Change    Column Row Layer    Max.-Flux-Residual            L2-New               L2-Old           Solver-Max-Delh
          0                 1           2            54   48     1       0.3891835189E+00      38   82    1       0.2879468263E+06      0.1233787926E+07      0.4097478339E+03      0.3891835189E+00
          0                 2           2            33  108     1       0.1681457341E+03      33  108    1       0.6325048961E+05      0.1374070713E+06      0.1233787926E+07      0.1681457341E+03
          1                 2           0            33  108     1       0.1177020119E+03      33  108    1      -0.3117605017E+08      0.3117605136E+08      0.1374070713E+06      0.1681457341E+03
          2                 2           0            33  108     1       0.8239140691E+02      33  108    1      -0.2180283453E+08      0.2180287243E+08      0.3117605136E+08      0.1681457341E+03
          3                 2           0            33  108     1       0.5767398386E+02      33  108    1      -0.1524158406E+08      0.1524172243E+08      0.2180287243E+08      0.1681457341E+03
          4                 2           0            33  108     1       0.4037178801E+02      33  108    1      -0.1064870899E+08      0.1064902496E+08      0.1524172243E+08      0.1681457341E+03
          5                 2           0            33  108     1       0.2826025113E+02      33  108    1      -0.7433696576E+07      0.7434291018E+07      0.1064902496E+08      0.1681457341E+03
          6                 2           0            33  108     1       0.1978217545E+02      33  108    1      -0.5183472018E+07      0.5184483418E+07      0.7434291018E+07      0.1681457341E+03
          7                 2           0            33  108     1       0.1384752258E+02      33  108    1      -0.3608433757E+07      0.3610057883E+07      0.5184483418E+07      0.1681457341E+03
          8                 2           0            33  108     1       0.9693265641E+01      33  108    1      -0.2505907021E+07      0.2508426031E+07      0.3610057883E+07      0.1681457341E+03
                                                   Max.-Head-Change                        Max.-Flux-Residual
  Residual-Control   Outer-Iter.   Inner-Iter.     Column Row Layer    Max.-Head-Change    Column Row Layer    Max.-Flux-Residual            L2-New               L2-Old           Solver-Max-Delh
          9                 2           0            33  108     1       0.6785285833E+01      33  108    1      -0.1734138333E+07      0.1737964972E+07      0.2508426031E+07      0.1681457341E+03
         10                 2           0            33  108     1       0.4749700003E+01      33  108    1      -0.1193900268E+07      0.1199647002E+07      0.1737964972E+07      0.1681457341E+03
         11                 2           0            33  108     1       0.3324789945E+01      33  108    1      -0.8157336314E+06      0.8243235362E+06      0.1199647002E+07      0.1681457341E+03
         12                 2           0            33  108     1       0.2327352922E+01      33  108    1      -0.5510169922E+06      0.5638643697E+06      0.8243235362E+06      0.1681457341E+03
         13                 2           0            33  108     1       0.1629147018E+01      33  108    1      -0.3657153488E+06      0.3850155007E+06      0.5638643697E+06      0.1681457341E+03
         14                 2           0            33  108     1       0.1140402893E+01      33  108    1      -0.2360042010E+06      0.2651488517E+06      0.3850155007E+06      0.1681457341E+03
         15                 2           0            33  108     1       0.7982820114E+00      33  108    1      -0.1452063993E+06      0.1891370024E+06      0.2651488517E+06      0.1681457341E+03
          0                 3           2            33  108     1      -0.4175316326E+00      33  108    1      -0.8164793922E+05      0.1463277605E+06      0.1891370024E+06     -0.4175316326E+00
          0                 4           2            69   15     1       0.1076885397E+00      33  108    1      -0.4082393439E+04      0.7315394426E+04      0.1463277605E+06      0.1076885397E+00

    ------------------------------------------------
       NWT REQUIRED            4 OUTER ITERATIONS 
       AND A TOTAL OF          8 INNER ITERATIONS.
    ------------------------------------------------

 OUTPUT CONTROL FOR STRESS PERIOD    1   TIME STEP  215
    SAVE HEAD FOR ALL LAYERS
    SAVE DRAWDOWN FOR ALL LAYERS
    SAVE BUDGET
    PRINT BUDGET
 UBDSV1 SAVING "         STORAGE" ON UNIT   9 AT TIME STEP215, STRESS PERIOD   1
 UBDSV2 SAVING "   CONSTANT HEAD" ON UNIT   9 AT TIME STEP215, STRESS PERIOD   1
 UBDSV1 SAVING "FLOW RIGHT FACE " ON UNIT   9 AT TIME STEP215, STRESS PERIOD   1
 UBDSV1 SAVING "FLOW FRONT FACE " ON UNIT   9 AT TIME STEP215, STRESS PERIOD   1
 UBDSV4 SAVING "   RIVER LEAKAGE" ON UNIT   9 AT TIME STEP215, STRESS PERIOD   1
 UBDSV3 SAVING "        RECHARGE" ON UNIT   9 AT TIME STEP215, STRESS PERIOD   1

 HEAD WILL BE SAVED ON UNIT   37 AT END OF TIME STEP  215, STRESS PERIOD    1

 DRAWDOWN WILL BE SAVED ON UNIT   38 AT END OF TIME STEP  215, STRESS PERIOD    1
1
  VOLUMETRIC BUDGET FOR ENTIRE MODEL AT END OF TIME STEP  215, STRESS PERIOD   1
  ------------------------------------------------------------------------------

     CUMULATIVE VOLUMES      L**3       RATES FOR THIS TIME STEP      L**3/T
     ------------------                 ------------------------

           IN:                                      IN:
           ---                                      ---
             STORAGE =   188540656.0000               STORAGE =      803032.5625
       CONSTANT HEAD =           0.0000         CONSTANT HEAD =           0.0000
       RIVER LEAKAGE =   841585600.0000         RIVER LEAKAGE =    10560351.0000
            RECHARGE =      181527.3594              RECHARGE =          67.7862

            TOTAL IN =  1030307776.0000              TOTAL IN =    11363452.0000

          OUT:                                     OUT:
          ----                                     ----
             STORAGE =  1025278016.0000               STORAGE =    11265456.0000
       CONSTANT HEAD =           0.0000         CONSTANT HEAD =           0.0000
       RIVER LEAKAGE =     5249525.5000         RIVER LEAKAGE =      100625.6641
            RECHARGE =           0.0000              RECHARGE =           0.0000

           TOTAL OUT =  1030527552.0000             TOTAL OUT =    11366082.0000

            IN - OUT =     -219776.0000              IN - OUT =       -2630.0000

 PERCENT DISCREPANCY =          -0.02     PERCENT DISCREPANCY =          -0.02






         TIME SUMMARY AT END OF TIME STEP  215 IN STRESS PERIOD    1
                    SECONDS     MINUTES      HOURS       DAYS        YEARS
                    -----------------------------------------------------------
   TIME STEP LENGTH  86400.      1440.0      24.000      1.0000     2.73785E-03
 STRESS PERIOD TIME 1.85760E+07 3.09600E+05  5160.0      215.00     0.58864    
         TOTAL TIME 1.85760E+07 3.09600E+05  5160.0      215.00     0.58864    
1
 
 SOLVING FOR HEAD 
                                                   Max.-Head-Change                        Max.-Flux-Residual
  Residual-Control   Outer-Iter.   Inner-Iter.     Column Row Layer    Max.-Head-Change    Column Row Layer    Max.-Flux-Residual            L2-New               L2-Old           Solver-Max-Delh
          0                 1           2            54   48     1       0.3875790734E+00      26  115    1      -0.1953287555E+06      0.9680732786E+06      0.3656529638E+03      0.3875790734E+00
          0                 2           2            69   15     1       0.1072748827E+00      26  115    1       0.1953287396E+05      0.9680849677E+05      0.9680732786E+06      0.1072748827E+00
          0                 3           2            69   15     1       0.1063879249E+00      26  115    1       0.9765774117E+03      0.4840419219E+04      0.9680849677E+05      0.1063879249E+00

    ------------------------------------------------
       NWT REQUIRED            3 OUTER ITERATIONS 
       AND A TOTAL OF          6 INNER ITERATIONS.
    ------------------------------------------------

 OUTPUT CONTROL FOR STRESS PERIOD    1   TIME STEP  216
    SAVE HEAD FOR ALL LAYERS
    SAVE DRAWDOWN FOR ALL LAYERS
    SAVE BUDGET
    PRINT BUDGET
 UBDSV1 SAVING "         STORAGE" ON UNIT   9 AT TIME STEP216, STRESS PERIOD   1
 UBDSV2 SAVING "   CONSTANT HEAD" ON UNIT   9 AT TIME STEP216, STRESS PERIOD   1
 UBDSV1 SAVING "FLOW RIGHT FACE " ON UNIT   9 AT TIME STEP216, STRESS PERIOD   1
 UBDSV1 SAVING "FLOW FRONT FACE " ON UNIT   9 AT TIME STEP216, STRESS PERIOD   1
 UBDSV4 SAVING "   RIVER LEAKAGE" ON UNIT   9 AT TIME STEP216, STRESS PERIOD   1
 UBDSV3 SAVING "        RECHARGE" ON UNIT   9 AT TIME STEP216, STRESS PERIOD   1

 HEAD WILL BE SAVED ON UNIT   37 AT END OF TIME STEP  216, STRESS PERIOD    1

 DRAWDOWN WILL BE SAVED ON UNIT   38 AT END OF TIME STEP  216, STRESS PERIOD    1
1
  VOLUMETRIC BUDGET FOR ENTIRE MODEL AT END OF TIME STEP  216, STRESS PERIOD   1
  ------------------------------------------------------------------------------

     CUMULATIVE VOLUMES      L**3       RATES FOR THIS TIME STEP      L**3/T
     ------------------                 ------------------------

           IN:                                      IN:
           ---                                      ---
             STORAGE =   189346832.0000               STORAGE =      806180.4375
       CONSTANT HEAD =           0.0000         CONSTANT HEAD =           0.0000
       RIVER LEAKAGE =   849052160.0000         RIVER LEAKAGE =     7466528.0000
            RECHARGE =      181596.0625              RECHARGE =          68.6996

            TOTAL IN =  1038580544.0000              TOTAL IN =     8272777.0000

          OUT:                                     OUT:
          ----                                     ----
             STORAGE =  1033445568.0000               STORAGE =     8167554.0000
       CONSTANT HEAD =           0.0000         CONSTANT HEAD =           0.0000
       RIVER LEAKAGE =     5355718.5000         RIVER LEAKAGE =      106193.1250
            RECHARGE =           0.0000              RECHARGE =           0.0000

           TOTAL OUT =  1038801280.0000             TOTAL OUT =     8273747.0000

            IN - OUT =     -220736.0000              IN - OUT =        -970.0000

 PERCENT DISCREPANCY =          -0.02     PERCENT DISCREPANCY =          -0.01






         TIME SUMMARY AT END OF TIME STEP  216 IN STRESS PERIOD    1
                    SECONDS     MINUTES      HOURS       DAYS        YEARS
                    -----------------------------------------------------------
   TIME STEP LENGTH  86400.      1440.0      24.000      1.0000     2.73785E-03
 STRESS PERIOD TIME 1.86624E+07 3.11040E+05  5184.0      216.00     0.59138    
         TOTAL TIME 1.86624E+07 3.11040E+05  5184.0      216.00     0.59138    
1
 
 SOLVING FOR HEAD 
                                                   Max.-Head-Change                        Max.-Flux-Residual
  Residual-Control   Outer-Iter.   Inner-Iter.     Column Row Layer    Max.-Head-Change    Column Row Layer    Max.-Flux-Residual            L2-New               L2-Old           Solver-Max-Delh
          0                 1           2            32  109     1       0.5350555031E+00      38   82    1       0.3700677998E+06      0.1585829811E+07      0.2419829443E+03      0.5350555031E+00
          0                 2           2            33  107     1       0.9117377313E+00      33  107    1       0.1613237645E+06      0.2250058328E+06      0.1585829811E+07      0.9117377313E+00
          0                 3           2            69   15     1       0.1049920090E+00      33  107    1      -0.1613135647E+05      0.1793615851E+05      0.2250058328E+06      0.1049920090E+00
          0                 4           2            69   15     1       0.1041169105E+00      33  107    1      -0.8065678163E+03      0.8967763936E+03      0.1793615851E+05      0.1041169105E+00

    ------------------------------------------------
       NWT REQUIRED            4 OUTER ITERATIONS 
       AND A TOTAL OF          8 INNER ITERATIONS.
    ------------------------------------------------

 OUTPUT CONTROL FOR STRESS PERIOD    1   TIME STEP  217
    SAVE HEAD FOR ALL LAYERS
    SAVE DRAWDOWN FOR ALL LAYERS
    SAVE BUDGET
    PRINT BUDGET
 UBDSV1 SAVING "         STORAGE" ON UNIT   9 AT TIME STEP217, STRESS PERIOD   1
 UBDSV2 SAVING "   CONSTANT HEAD" ON UNIT   9 AT TIME STEP217, STRESS PERIOD   1
 UBDSV1 SAVING "FLOW RIGHT FACE " ON UNIT   9 AT TIME STEP217, STRESS PERIOD   1
 UBDSV1 SAVING "FLOW FRONT FACE " ON UNIT   9 AT TIME STEP217, STRESS PERIOD   1
 UBDSV4 SAVING "   RIVER LEAKAGE" ON UNIT   9 AT TIME STEP217, STRESS PERIOD   1
 UBDSV3 SAVING "        RECHARGE" ON UNIT   9 AT TIME STEP217, STRESS PERIOD   1

 HEAD WILL BE SAVED ON UNIT   37 AT END OF TIME STEP  217, STRESS PERIOD    1

 DRAWDOWN WILL BE SAVED ON UNIT   38 AT END OF TIME STEP  217, STRESS PERIOD    1
1
  VOLUMETRIC BUDGET FOR ENTIRE MODEL AT END OF TIME STEP  217, STRESS PERIOD   1
  ------------------------------------------------------------------------------

     CUMULATIVE VOLUMES      L**3       RATES FOR THIS TIME STEP      L**3/T
     ------------------                 ------------------------

           IN:                                      IN:
           ---                                      ---
             STORAGE =   190147360.0000               STORAGE =      800533.4375
       CONSTANT HEAD =           0.0000         CONSTANT HEAD =           0.0000
       RIVER LEAKAGE =   860870400.0000         RIVER LEAKAGE =    11818255.0000
            RECHARGE =      181664.3594              RECHARGE =          68.2972

            TOTAL IN =  1051199488.0000              TOTAL IN =    12618856.0000

          OUT:                                     OUT:
          ----                                     ----
             STORAGE =  1045966144.0000               STORAGE =    12520578.0000
       CONSTANT HEAD =           0.0000         CONSTANT HEAD =           0.0000
       RIVER LEAKAGE =     5454232.5000         RIVER LEAKAGE =       98513.9844
            RECHARGE =           0.0000              RECHARGE =           0.0000

           TOTAL OUT =  1051420352.0000             TOTAL OUT =    12619092.0000

            IN - OUT =     -220864.0000              IN - OUT =        -236.0000

 PERCENT DISCREPANCY =          -0.02     PERCENT DISCREPANCY =          -0.00






         TIME SUMMARY AT END OF TIME STEP  217 IN STRESS PERIOD    1
                    SECONDS     MINUTES      HOURS       DAYS        YEARS
                    -----------------------------------------------------------
   TIME STEP LENGTH  86400.      1440.0      24.000      1.0000     2.73785E-03
 STRESS PERIOD TIME 1.87488E+07 3.12480E+05  5208.0      217.00     0.59411    
         TOTAL TIME 1.87488E+07 3.12480E+05  5208.0      217.00     0.59411    
1
 
 SOLVING FOR HEAD 
                                                   Max.-Head-Change                        Max.-Flux-Residual
  Residual-Control   Outer-Iter.   Inner-Iter.     Column Row Layer    Max.-Head-Change    Column Row Layer    Max.-Flux-Residual            L2-New               L2-Old           Solver-Max-Delh
          0                 1           2            42   58     1       0.1057959802E+01      38   82    1       0.3553699424E+06      0.1633401302E+07      0.4488463674E+02      0.1057959802E+01
          0                 2           2            33  106     1       0.2267814603E+03      33  106    1       0.3911459216E+05      0.1661288998E+06      0.1633401302E+07      0.2267814603E+03
          1                 2           0            33  106     1       0.1587470195E+03      33  106    1      -0.4089441895E+08      0.4089442119E+08      0.1661288998E+06      0.2267814603E+03
          2                 2           0            33  106     1       0.1111229118E+03      33  106    1      -0.2861118646E+08      0.2861123826E+08      0.4089442119E+08      0.2267814603E+03
          3                 2           0            33  106     1       0.7778603692E+02      33  106    1      -0.2001292386E+08      0.2001311013E+08      0.2861123826E+08      0.2267814603E+03
          4                 2           0            33  106     1       0.5445022491E+02      33  106    1      -0.1399425651E+08      0.1399467976E+08      0.2001311013E+08      0.2267814603E+03
          5                 2           0            33  106     1       0.3811515679E+02      33  106    1      -0.9781869168E+07      0.9782662924E+07      0.1399467976E+08      0.2267814603E+03
          6                 2           0            33  106     1       0.2668060930E+02      33  106    1      -0.6833198078E+07      0.6834544726E+07      0.9782662924E+07      0.2267814603E+03
          7                 2           0            33  106     1       0.1867642619E+02      33  106    1      -0.4769366688E+07      0.4771522136E+07      0.6834544726E+07      0.2267814603E+03
          8                 2           0            33  106     1       0.1307349811E+02      33  106    1      -0.3324869975E+07      0.3328198908E+07      0.4771522136E+07      0.2267814603E+03
                                                   Max.-Head-Change                        Max.-Flux-Residual
  Residual-Control   Outer-Iter.   Inner-Iter.     Column Row Layer    Max.-Head-Change    Column Row Layer    Max.-Flux-Residual            L2-New               L2-Old           Solver-Max-Delh
          9                 2           0            33  106     1       0.9151448522E+01      33  106    1      -0.2313722292E+07      0.2318749943E+07      0.3328198908E+07      0.2267814603E+03
         10                 2           0            33  106     1       0.6406013856E+01      33  106    1      -0.1605918927E+07      0.1613407307E+07      0.2318749943E+07      0.2267814603E+03
         11                 2           0            33  106     1       0.4484209623E+01      33  106    1      -0.1110456579E+07      0.1121517586E+07      0.1613407307E+07      0.2267814603E+03
         12                 2           0            33  106     1       0.3138946683E+01      33  106    1      -0.7636329417E+06      0.7798932612E+06      0.1121517586E+07      0.2267814603E+03
         13                 2           0            33  106     1       0.2197262641E+01      33  106    1      -0.5208563997E+06      0.5446823606E+06      0.7798932612E+06      0.2267814603E+03
         14                 2           0            33  106     1       0.1538083822E+01      33  106    1      -0.3509128232E+06      0.3856562710E+06      0.5446823606E+06      0.2267814603E+03
         15                 2           0            33  106     1       0.1076658657E+01      33  106    1      -0.2319523216E+06      0.2820208117E+06      0.3856562710E+06      0.2267814603E+03
         16                 2           0            33  106     1       0.7536610472E+00      33  106    1      -0.1486799720E+06      0.2189517428E+06      0.2820208117E+06      0.2267814603E+03
         17                 2           0            33  106     1       0.5275627240E+00      33  106    1      -0.9038932822E+05      0.1845932537E+06      0.2189517428E+06      0.2267814603E+03
          0                 3           2            33  106     1      -0.2610355502E+00      33  106    1      -0.4958587828E+05      0.1685599887E+06      0.1845932537E+06     -0.2610355502E+00
                                                   Max.-Head-Change                        Max.-Flux-Residual
  Residual-Control   Outer-Iter.   Inner-Iter.     Column Row Layer    Max.-Head-Change    Column Row Layer    Max.-Flux-Residual            L2-New               L2-Old           Solver-Max-Delh
          0                 4           2            69   15     1       0.1027381737E+00      33  106    1      -0.2479292792E+04      0.8426502363E+04      0.1685599887E+06      0.1027381737E+00

    ------------------------------------------------
       NWT REQUIRED            4 OUTER ITERATIONS 
       AND A TOTAL OF          8 INNER ITERATIONS.
    ------------------------------------------------

 OUTPUT CONTROL FOR STRESS PERIOD    1   TIME STEP  218
    SAVE HEAD FOR ALL LAYERS
    SAVE DRAWDOWN FOR ALL LAYERS
    SAVE BUDGET
    PRINT BUDGET
 UBDSV1 SAVING "         STORAGE" ON UNIT   9 AT TIME STEP218, STRESS PERIOD   1
 UBDSV2 SAVING "   CONSTANT HEAD" ON UNIT   9 AT TIME STEP218, STRESS PERIOD   1
 UBDSV1 SAVING "FLOW RIGHT FACE " ON UNIT   9 AT TIME STEP218, STRESS PERIOD   1
 UBDSV1 SAVING "FLOW FRONT FACE " ON UNIT   9 AT TIME STEP218, STRESS PERIOD   1
 UBDSV4 SAVING "   RIVER LEAKAGE" ON UNIT   9 AT TIME STEP218, STRESS PERIOD   1
 UBDSV3 SAVING "        RECHARGE" ON UNIT   9 AT TIME STEP218, STRESS PERIOD   1

 HEAD WILL BE SAVED ON UNIT   37 AT END OF TIME STEP  218, STRESS PERIOD    1

 DRAWDOWN WILL BE SAVED ON UNIT   38 AT END OF TIME STEP  218, STRESS PERIOD    1
1
  VOLUMETRIC BUDGET FOR ENTIRE MODEL AT END OF TIME STEP  218, STRESS PERIOD   1
  ------------------------------------------------------------------------------

     CUMULATIVE VOLUMES      L**3       RATES FOR THIS TIME STEP      L**3/T
     ------------------                 ------------------------

           IN:                                      IN:
           ---                                      ---
             STORAGE =   190948768.0000               STORAGE =      801404.8125
       CONSTANT HEAD =           0.0000         CONSTANT HEAD =           0.0000
       RIVER LEAKAGE =   873680576.0000         RIVER LEAKAGE =    12810184.0000
            RECHARGE =      181731.9688              RECHARGE =          67.6164

            TOTAL IN =  1064811136.0000              TOTAL IN =    13611657.0000

          OUT:                                     OUT:
          ----                                     ----
             STORAGE =  1059475392.0000               STORAGE =    13509269.0000
       CONSTANT HEAD =           0.0000         CONSTANT HEAD =           0.0000
       RIVER LEAKAGE =     5560485.5000         RIVER LEAKAGE =      106252.9609
            RECHARGE =           0.0000              RECHARGE =           0.0000

           TOTAL OUT =  1065035904.0000             TOTAL OUT =    13615522.0000

            IN - OUT =     -224768.0000              IN - OUT =       -3865.0000

 PERCENT DISCREPANCY =          -0.02     PERCENT DISCREPANCY =          -0.03






         TIME SUMMARY AT END OF TIME STEP  218 IN STRESS PERIOD    1
                    SECONDS     MINUTES      HOURS       DAYS        YEARS
                    -----------------------------------------------------------
   TIME STEP LENGTH  86400.      1440.0      24.000      1.0000     2.73785E-03
 STRESS PERIOD TIME 1.88352E+07 3.13920E+05  5232.0      218.00     0.59685    
         TOTAL TIME 1.88352E+07 3.13920E+05  5232.0      218.00     0.59685    
1
 
 SOLVING FOR HEAD 
                                                   Max.-Head-Change                        Max.-Flux-Residual
  Residual-Control   Outer-Iter.   Inner-Iter.     Column Row Layer    Max.-Head-Change    Column Row Layer    Max.-Flux-Residual            L2-New               L2-Old           Solver-Max-Delh
          0                 1           2            33  106     1       0.7779004865E+00      26  115    1      -0.3101426706E+06      0.1276945922E+07      0.4211700246E+03      0.7779004865E+00
          0                 2           2            49   35     1       0.1022493368E+02      26  115    1       0.3101427784E+05      0.1254297491E+06      0.1276945922E+07      0.1022493368E+02
          1                 2           0            49   35     1       0.7157453451E+01      32  108    1       0.9479054536E+07      0.9609880568E+07      0.1254297491E+06      0.1022493368E+02
          2                 2           0            49   35     1       0.5010217331E+01      32  108    1       0.6630263741E+07      0.6721655610E+07      0.9609880568E+07      0.1022493368E+02
          3                 2           0            49   35     1       0.3507152072E+01      32  108    1       0.4635965173E+07      0.4700015984E+07      0.6721655610E+07      0.1022493368E+02
          4                 2           0            49   35     1       0.2455006408E+01      32  108    1       0.3239885126E+07      0.3285172171E+07      0.4700015984E+07      0.1022493368E+02
          5                 2           0            49   35     1       0.1718504457E+01      32  108    1       0.2262594284E+07      0.2295283932E+07      0.3285172171E+07      0.1022493368E+02
          6                 2           0            49   35     1       0.1202953099E+01      32  108    1       0.1578473642E+07      0.1603116615E+07      0.2295283932E+07      0.1022493368E+02
          7                 2           0            49   35     1       0.8420671551E+00      32  108    1       0.1099580839E+07      0.1119700468E+07      0.1603116615E+07      0.1022493368E+02
          8                 2           0            49   35     1       0.5894469985E+00      32  108    1       0.7643517859E+06      0.7828997029E+06      0.1119700468E+07      0.1022493368E+02
                                                   Max.-Head-Change                        Max.-Flux-Residual
  Residual-Control   Outer-Iter.   Inner-Iter.     Column Row Layer    Max.-Head-Change    Column Row Layer    Max.-Flux-Residual            L2-New               L2-Old           Solver-Max-Delh
          9                 2           0            49   35     1       0.4126128919E+00      32  108    1       0.5296894448E+06      0.5494201727E+06      0.7828997029E+06      0.1022493368E+02
         10                 2           0            49   35     1       0.2888290194E+00      32  108    1       0.3654248251E+06      0.3891717501E+06      0.5494201727E+06      0.1022493368E+02
         11                 2           0            49   35     1       0.2021803102E+00      32  108    1       0.2504391113E+06      0.2813352702E+06      0.3891717501E+06      0.1022493368E+02
         12                 2           0            49   35     1       0.1415262147E+00      32  108    1       0.1699488767E+06      0.2114156555E+06      0.2813352702E+06      0.1022493368E+02
         13                 2           0            49   35     1       0.9906834860E-01      32  108    1       0.1136055978E+06      0.1688143248E+06      0.2114156555E+06      0.1022493368E+02
         14                 2           0            49   35     1       0.6934784284E-01      32  108    1       0.7416524648E+05      0.1450506079E+06      0.1688143248E+06      0.1022493368E+02
          0                 3           2            21  120     1       0.1461736649E+01      32  108    1       0.4655697325E+05      0.1331163879E+06      0.1450506079E+06      0.1461736649E+01
          1                 3           0            21  120     1       0.1023215637E+01      21  120    1      -0.2806377976E+06      0.2808305376E+06      0.1331163879E+06      0.1461736649E+01
          2                 3           0            21  120     1       0.7162509336E+00      21  120    1      -0.1917850199E+06      0.1972797918E+06      0.2808305376E+06      0.1461736649E+01
          3                 3           0            21  120     1       0.5013756450E+00      21  120    1      -0.1295880721E+06      0.1483612489E+06      0.1972797918E+06      0.1461736649E+01
                                                   Max.-Head-Change                        Max.-Flux-Residual
  Residual-Control   Outer-Iter.   Inner-Iter.     Column Row Layer    Max.-Head-Change    Column Row Layer    Max.-Flux-Residual            L2-New               L2-Old           Solver-Max-Delh
          0                 4           2            21  120     1      -0.4034619523E+00      21  120    1      -0.8605020728E+05      0.1248674377E+06      0.1483612489E+06     -0.4034619523E+00
          0                 5           2            69   15     1       0.1042948413E+00      32  108    1       0.5932710365E+04      0.8480445069E+04      0.1248674377E+06      0.1042948413E+00
          0                 6           2            69   15     1       0.1033955613E+00      32  108    1       0.1052963077E+04      0.1103511065E+04      0.8480445069E+04      0.1033955613E+00
          1                 6           0            69   15     1       0.7237689169E-01      30  106    1      -0.1057461906E+05      0.1057634041E+05      0.1103511065E+04      0.1033955613E+00
          2                 6           0            69   15     1       0.5066382332E-01      30  106    1      -0.5221237703E+04      0.5241599705E+04      0.1057634041E+05      0.1033955613E+00
          3                 6           0            69   15     1       0.3546467572E-01      30  106    1      -0.1473871329E+04      0.1612412469E+04      0.5241599705E+04      0.1033955613E+00
          0                 7           2            69   15     1       0.1030897497E+00      32  108    1       0.7558933796E+03      0.7887070079E+03      0.1612412469E+04      0.1030897497E+00
          1                 7           0            69   15     1       0.7216282356E-01      30  106    1      -0.1669136889E+05      0.1672029428E+05      0.7887070079E+03      0.1030897497E+00
          2                 7           0            69   15     1       0.5051397563E-01      30  106    1      -0.1133917155E+05      0.1134475638E+05      0.1672029428E+05      0.1030897497E+00
          3                 7           0            69   15     1       0.3535978234E-01      30  106    1      -0.7592633996E+04      0.7607027520E+04      0.1134475638E+05      0.1030897497E+00
                                                   Max.-Head-Change                        Max.-Flux-Residual
  Residual-Control   Outer-Iter.   Inner-Iter.     Column Row Layer    Max.-Head-Change    Column Row Layer    Max.-Flux-Residual            L2-New               L2-Old           Solver-Max-Delh
          4                 7           0            69   15     1       0.2475184722E-01      30  106    1      -0.4970058001E+04      0.5001954548E+04      0.7607027520E+04      0.1030897497E+00
          5                 7           0            69   15     1       0.1732629276E-01      30  106    1      -0.3134254958E+04      0.3197216746E+04      0.5001954548E+04      0.1030897497E+00
          6                 7           0            69   15     1       0.1212840472E-01      30  106    1      -0.1849192911E+04      0.1969764598E+04      0.3197216746E+04      0.1030897497E+00
          7                 7           0            69   15     1       0.8489883162E-02      30  106    1      -0.9496495220E+03      0.1186684547E+04      0.1969764598E+04      0.1030897497E+00
          0                 8           2            69   15     1       0.1030165417E+00      32  108    1       0.7046894606E+03      0.8013844605E+03      0.1186684547E+04      0.1030165417E+00
          1                 8           0            69   15     1       0.7211157799E-01      37   32    1      -0.1199516953E+04      0.1206317079E+04      0.8013844605E+03      0.1030165417E+00

    ------------------------------------------------
       NWT REQUIRED            8 OUTER ITERATIONS 
       AND A TOTAL OF         16 INNER ITERATIONS.
    ------------------------------------------------

 OUTPUT CONTROL FOR STRESS PERIOD    1   TIME STEP  219
    SAVE HEAD FOR ALL LAYERS
    SAVE DRAWDOWN FOR ALL LAYERS
    SAVE BUDGET
    PRINT BUDGET
 UBDSV1 SAVING "         STORAGE" ON UNIT   9 AT TIME STEP219, STRESS PERIOD   1
 UBDSV2 SAVING "   CONSTANT HEAD" ON UNIT   9 AT TIME STEP219, STRESS PERIOD   1
 UBDSV1 SAVING "FLOW RIGHT FACE " ON UNIT   9 AT TIME STEP219, STRESS PERIOD   1
 UBDSV1 SAVING "FLOW FRONT FACE " ON UNIT   9 AT TIME STEP219, STRESS PERIOD   1
 UBDSV4 SAVING "   RIVER LEAKAGE" ON UNIT   9 AT TIME STEP219, STRESS PERIOD   1
 UBDSV3 SAVING "        RECHARGE" ON UNIT   9 AT TIME STEP219, STRESS PERIOD   1

 HEAD WILL BE SAVED ON UNIT   37 AT END OF TIME STEP  219, STRESS PERIOD    1

 DRAWDOWN WILL BE SAVED ON UNIT   38 AT END OF TIME STEP  219, STRESS PERIOD    1
1
  VOLUMETRIC BUDGET FOR ENTIRE MODEL AT END OF TIME STEP  219, STRESS PERIOD   1
  ------------------------------------------------------------------------------

     CUMULATIVE VOLUMES      L**3       RATES FOR THIS TIME STEP      L**3/T
     ------------------                 ------------------------

           IN:                                      IN:
           ---                                      ---
             STORAGE =   191753216.0000               STORAGE =      804454.8750
       CONSTANT HEAD =           0.0000         CONSTANT HEAD =           0.0000
       RIVER LEAKAGE =   882538752.0000         RIVER LEAKAGE =     8858184.0000
            RECHARGE =      181802.6406              RECHARGE =          70.6683

            TOTAL IN =  1074473728.0000              TOTAL IN =     9662710.0000

          OUT:                                     OUT:
          ----                                     ----
             STORAGE =  1069020928.0000               STORAGE =     9545557.0000
       CONSTANT HEAD =           0.0000         CONSTANT HEAD =           0.0000
       RIVER LEAKAGE =     5678066.5000         RIVER LEAKAGE =      117580.7734
            RECHARGE =           0.0000              RECHARGE =           0.0000

           TOTAL OUT =  1074699008.0000             TOTAL OUT =     9663138.0000

            IN - OUT =     -225280.0000              IN - OUT =        -428.0000

 PERCENT DISCREPANCY =          -0.02     PERCENT DISCREPANCY =          -0.00






         TIME SUMMARY AT END OF TIME STEP  219 IN STRESS PERIOD    1
                    SECONDS     MINUTES      HOURS       DAYS        YEARS
                    -----------------------------------------------------------
   TIME STEP LENGTH  86400.      1440.0      24.000      1.0000     2.73785E-03
 STRESS PERIOD TIME 1.89216E+07 3.15360E+05  5256.0      219.00     0.59959    
         TOTAL TIME 1.89216E+07 3.15360E+05  5256.0      219.00     0.59959    
1
 
 SOLVING FOR HEAD 
                                                   Max.-Head-Change                        Max.-Flux-Residual
  Residual-Control   Outer-Iter.   Inner-Iter.     Column Row Layer    Max.-Head-Change    Column Row Layer    Max.-Flux-Residual            L2-New               L2-Old           Solver-Max-Delh
          0                 1           2            21  120     1       0.7256023877E+00      38   82    1       0.2212012943E+06      0.9405213712E+06      0.4854636310E+03      0.7256023877E+00
          0                 2           2            39   50     1       0.2264468149E+02      32  108    1       0.1396030693E+06      0.1677043538E+06      0.9405213712E+06      0.2264468149E+02
          1                 2           0            39   50     1       0.1585127678E+02      39   50    1      -0.3774497295E+07      0.3915809053E+07      0.1677043538E+06      0.2264468149E+02
          2                 2           0            39   50     1       0.1109589355E+02      39   50    1      -0.2640572904E+07      0.2739013350E+07      0.3915809053E+07      0.2264468149E+02
          3                 2           0            39   50     1       0.7767125356E+01      39   50    1      -0.1846825843E+07      0.1916382701E+07      0.2739013350E+07      0.2264468149E+02
          4                 2           0            39   50     1       0.5436987656E+01      39   50    1      -0.1291202910E+07      0.1342152095E+07      0.1916382701E+07      0.2264468149E+02
          5                 2           0            39   50     1       0.3805891295E+01      39   50    1      -0.9022668636E+06      0.9424863721E+06      0.1342152095E+07      0.2264468149E+02
          6                 2           0            39   50     1       0.2664123861E+01      39   50    1      -0.6300116355E+06      0.6659624929E+06      0.9424863721E+06      0.2264468149E+02
          7                 2           0            39   50     1       0.1864886671E+01      39   50    1      -0.4394329791E+06      0.4768802868E+06      0.6659624929E+06      0.2264468149E+02
          8                 2           0            39   50     1       0.1305420647E+01      39   50    1      -0.3060279218E+06      0.3504624061E+06      0.4768802868E+06      0.2264468149E+02
                                                   Max.-Head-Change                        Max.-Flux-Residual
  Residual-Control   Outer-Iter.   Inner-Iter.     Column Row Layer    Max.-Head-Change    Column Row Layer    Max.-Flux-Residual            L2-New               L2-Old           Solver-Max-Delh
          9                 2           0            39   50     1       0.9137944376E+00      39   50    1      -0.2126443833E+06      0.2692211133E+06      0.3504624061E+06      0.2264468149E+02
         10                 2           0            39   50     1       0.6396560954E+00      39   50    1      -0.1472759075E+06      0.2201032942E+06      0.2692211133E+06      0.2264468149E+02
         11                 2           0            39   50     1       0.4477592592E+00      32  108    1       0.1352652778E+06      0.1926455359E+06      0.2201032942E+06      0.2264468149E+02
          0                 3           2            32  108     1       0.7649982116E+00      32  108    1       0.1365666153E+06      0.1785208523E+06      0.1926455359E+06      0.7649982116E+00
          0                 4           2            69   15     1       0.1034159021E+00      32  108    1      -0.1365690102E+05      0.1907322583E+05      0.1785208523E+06      0.1034159021E+00
          0                 5           2            69   15     1       0.1025093338E+00      39   50    1      -0.2189164106E+04      0.2326722307E+04      0.1907322583E+05      0.1025093338E+00

    ------------------------------------------------
       NWT REQUIRED            5 OUTER ITERATIONS 
       AND A TOTAL OF         10 INNER ITERATIONS.
    ------------------------------------------------

 OUTPUT CONTROL FOR STRESS PERIOD    1   TIME STEP  220
    SAVE HEAD FOR ALL LAYERS
    SAVE DRAWDOWN FOR ALL LAYERS
    SAVE BUDGET
    PRINT BUDGET
 UBDSV1 SAVING "         STORAGE" ON UNIT   9 AT TIME STEP220, STRESS PERIOD   1
 UBDSV2 SAVING "   CONSTANT HEAD" ON UNIT   9 AT TIME STEP220, STRESS PERIOD   1
 UBDSV1 SAVING "FLOW RIGHT FACE " ON UNIT   9 AT TIME STEP220, STRESS PERIOD   1
 UBDSV1 SAVING "FLOW FRONT FACE " ON UNIT   9 AT TIME STEP220, STRESS PERIOD   1
 UBDSV4 SAVING "   RIVER LEAKAGE" ON UNIT   9 AT TIME STEP220, STRESS PERIOD   1
 UBDSV3 SAVING "        RECHARGE" ON UNIT   9 AT TIME STEP220, STRESS PERIOD   1

 HEAD WILL BE SAVED ON UNIT   37 AT END OF TIME STEP  220, STRESS PERIOD    1

 DRAWDOWN WILL BE SAVED ON UNIT   38 AT END OF TIME STEP  220, STRESS PERIOD    1
1
  VOLUMETRIC BUDGET FOR ENTIRE MODEL AT END OF TIME STEP  220, STRESS PERIOD   1
  ------------------------------------------------------------------------------

     CUMULATIVE VOLUMES      L**3       RATES FOR THIS TIME STEP      L**3/T
     ------------------                 ------------------------

           IN:                                      IN:
           ---                                      ---
             STORAGE =   192555168.0000               STORAGE =      801957.6250
       CONSTANT HEAD =           0.0000         CONSTANT HEAD =           0.0000
       RIVER LEAKAGE =   889890048.0000         RIVER LEAKAGE =     7351298.0000
            RECHARGE =      181880.8906              RECHARGE =          78.2544

            TOTAL IN =  1082627072.0000              TOTAL IN =     8153334.0000

          OUT:                                     OUT:
          ----                                     ----
             STORAGE =  1077057152.0000               STORAGE =     8036172.5000
       CONSTANT HEAD =           0.0000         CONSTANT HEAD =           0.0000
       RIVER LEAKAGE =     5795812.0000         RIVER LEAKAGE =      117745.5078
            RECHARGE =           0.0000              RECHARGE =           0.0000

           TOTAL OUT =  1082852992.0000             TOTAL OUT =     8153918.0000

            IN - OUT =     -225920.0000              IN - OUT =        -584.0000

 PERCENT DISCREPANCY =          -0.02     PERCENT DISCREPANCY =          -0.01






         TIME SUMMARY AT END OF TIME STEP  220 IN STRESS PERIOD    1
                    SECONDS     MINUTES      HOURS       DAYS        YEARS
                    -----------------------------------------------------------
   TIME STEP LENGTH  86400.      1440.0      24.000      1.0000     2.73785E-03
 STRESS PERIOD TIME 1.90080E+07 3.16800E+05  5280.0      220.00     0.60233    
         TOTAL TIME 1.90080E+07 3.16800E+05  5280.0      220.00     0.60233    
1
 
 SOLVING FOR HEAD 
                                                   Max.-Head-Change                        Max.-Flux-Residual
  Residual-Control   Outer-Iter.   Inner-Iter.     Column Row Layer    Max.-Head-Change    Column Row Layer    Max.-Flux-Residual            L2-New               L2-Old           Solver-Max-Delh
          0                 1           2            59   15     1       0.6191097849E+00      38   82    1       0.2072497678E+06      0.8313179528E+06      0.3942246647E+03      0.6191097849E+00
          0                 2           2            69   15     1       0.1019845284E+00      38   82    1      -0.2072561462E+05      0.8313346447E+05      0.8313179528E+06      0.1019845284E+00
          0                 3           2            69   15     1       0.1010844602E+00      38   82    1      -0.1036284962E+04      0.4156683819E+04      0.8313346447E+05      0.1010844602E+00

    ------------------------------------------------
       NWT REQUIRED            3 OUTER ITERATIONS 
       AND A TOTAL OF          6 INNER ITERATIONS.
    ------------------------------------------------

 OUTPUT CONTROL FOR STRESS PERIOD    1   TIME STEP  221
    SAVE HEAD FOR ALL LAYERS
    SAVE DRAWDOWN FOR ALL LAYERS
    SAVE BUDGET
    PRINT BUDGET
 UBDSV1 SAVING "         STORAGE" ON UNIT   9 AT TIME STEP221, STRESS PERIOD   1
 UBDSV2 SAVING "   CONSTANT HEAD" ON UNIT   9 AT TIME STEP221, STRESS PERIOD   1
 UBDSV1 SAVING "FLOW RIGHT FACE " ON UNIT   9 AT TIME STEP221, STRESS PERIOD   1
 UBDSV1 SAVING "FLOW FRONT FACE " ON UNIT   9 AT TIME STEP221, STRESS PERIOD   1
 UBDSV4 SAVING "   RIVER LEAKAGE" ON UNIT   9 AT TIME STEP221, STRESS PERIOD   1
 UBDSV3 SAVING "        RECHARGE" ON UNIT   9 AT TIME STEP221, STRESS PERIOD   1

 HEAD WILL BE SAVED ON UNIT   37 AT END OF TIME STEP  221, STRESS PERIOD    1

 DRAWDOWN WILL BE SAVED ON UNIT   38 AT END OF TIME STEP  221, STRESS PERIOD    1
1
  VOLUMETRIC BUDGET FOR ENTIRE MODEL AT END OF TIME STEP  221, STRESS PERIOD   1
  ------------------------------------------------------------------------------

     CUMULATIVE VOLUMES      L**3       RATES FOR THIS TIME STEP      L**3/T
     ------------------                 ------------------------

           IN:                                      IN:
           ---                                      ---
             STORAGE =   193356480.0000               STORAGE =      801309.3750
       CONSTANT HEAD =           0.0000         CONSTANT HEAD =           0.0000
       RIVER LEAKAGE =   896759872.0000         RIVER LEAKAGE =     6869798.5000
            RECHARGE =      181975.2031              RECHARGE =          94.3056

            TOTAL IN =  1090298368.0000              TOTAL IN =     7671202.5000

          OUT:                                     OUT:
          ----                                     ----
             STORAGE =  1084610688.0000               STORAGE =     7553589.0000
       CONSTANT HEAD =           0.0000         CONSTANT HEAD =           0.0000
       RIVER LEAKAGE =     5914887.5000         RIVER LEAKAGE =      119075.2734
            RECHARGE =           0.0000              RECHARGE =           0.0000

           TOTAL OUT =  1090525568.0000             TOTAL OUT =     7672664.5000

            IN - OUT =     -227200.0000              IN - OUT =       -1462.0000

 PERCENT DISCREPANCY =          -0.02     PERCENT DISCREPANCY =          -0.02






         TIME SUMMARY AT END OF TIME STEP  221 IN STRESS PERIOD    1
                    SECONDS     MINUTES      HOURS       DAYS        YEARS
                    -----------------------------------------------------------
   TIME STEP LENGTH  86400.      1440.0      24.000      1.0000     2.73785E-03
 STRESS PERIOD TIME 1.90944E+07 3.18240E+05  5304.0      221.00     0.60507    
         TOTAL TIME 1.90944E+07 3.18240E+05  5304.0      221.00     0.60507    
1
 
 SOLVING FOR HEAD 
                                                   Max.-Head-Change                        Max.-Flux-Residual
  Residual-Control   Outer-Iter.   Inner-Iter.     Column Row Layer    Max.-Head-Change    Column Row Layer    Max.-Flux-Residual            L2-New               L2-Old           Solver-Max-Delh
          0                 1           2            38   71     1      -0.6094774002E+00      26  115    1      -0.2049282309E+06      0.7785475782E+06      0.2077982913E+03     -0.6094774002E+00
          0                 2           2            59   34     1       0.3798059031E+00      26  115    1       0.2049285997E+05      0.7820485167E+05      0.7785475782E+06      0.3798059031E+00
          0                 3           2            69   15     1       0.9966469575E-01      26  115    1       0.1024642752E+04      0.3967788510E+04      0.7820485167E+05      0.9966469575E-01

    ------------------------------------------------
       NWT REQUIRED            3 OUTER ITERATIONS 
       AND A TOTAL OF          6 INNER ITERATIONS.
    ------------------------------------------------

 OUTPUT CONTROL FOR STRESS PERIOD    1   TIME STEP  222
    SAVE HEAD FOR ALL LAYERS
    SAVE DRAWDOWN FOR ALL LAYERS
    SAVE BUDGET
    PRINT BUDGET
 UBDSV1 SAVING "         STORAGE" ON UNIT   9 AT TIME STEP222, STRESS PERIOD   1
 UBDSV2 SAVING "   CONSTANT HEAD" ON UNIT   9 AT TIME STEP222, STRESS PERIOD   1
 UBDSV1 SAVING "FLOW RIGHT FACE " ON UNIT   9 AT TIME STEP222, STRESS PERIOD   1
 UBDSV1 SAVING "FLOW FRONT FACE " ON UNIT   9 AT TIME STEP222, STRESS PERIOD   1
 UBDSV4 SAVING "   RIVER LEAKAGE" ON UNIT   9 AT TIME STEP222, STRESS PERIOD   1
 UBDSV3 SAVING "        RECHARGE" ON UNIT   9 AT TIME STEP222, STRESS PERIOD   1

 HEAD WILL BE SAVED ON UNIT   37 AT END OF TIME STEP  222, STRESS PERIOD    1

 DRAWDOWN WILL BE SAVED ON UNIT   38 AT END OF TIME STEP  222, STRESS PERIOD    1
1
  VOLUMETRIC BUDGET FOR ENTIRE MODEL AT END OF TIME STEP  222, STRESS PERIOD   1
  ------------------------------------------------------------------------------

     CUMULATIVE VOLUMES      L**3       RATES FOR THIS TIME STEP      L**3/T
     ------------------                 ------------------------

           IN:                                      IN:
           ---                                      ---
             STORAGE =   194160944.0000               STORAGE =      804458.3750
       CONSTANT HEAD =           0.0000         CONSTANT HEAD =           0.0000
       RIVER LEAKAGE =   901420864.0000         RIVER LEAKAGE =     4660981.0000
            RECHARGE =      182099.2500              RECHARGE =         124.0455

            TOTAL IN =  1095763840.0000              TOTAL IN =     5465563.5000

          OUT:                                     OUT:
          ----                                     ----
             STORAGE =  1089953024.0000               STORAGE =     5342338.5000
       CONSTANT HEAD =           0.0000         CONSTANT HEAD =           0.0000
       RIVER LEAKAGE =     6038304.0000         RIVER LEAKAGE =      123416.2578
            RECHARGE =           0.0000              RECHARGE =           0.0000

           TOTAL OUT =  1095991296.0000             TOTAL OUT =     5465755.0000

            IN - OUT =     -227456.0000              IN - OUT =        -191.5000

 PERCENT DISCREPANCY =          -0.02     PERCENT DISCREPANCY =          -0.00






         TIME SUMMARY AT END OF TIME STEP  222 IN STRESS PERIOD    1
                    SECONDS     MINUTES      HOURS       DAYS        YEARS
                    -----------------------------------------------------------
   TIME STEP LENGTH  86400.      1440.0      24.000      1.0000     2.73785E-03
 STRESS PERIOD TIME 1.91808E+07 3.19680E+05  5328.0      222.00     0.60780    
         TOTAL TIME 1.91808E+07 3.19680E+05  5328.0      222.00     0.60780    
1
 
 SOLVING FOR HEAD 
                                                   Max.-Head-Change                        Max.-Flux-Residual
  Residual-Control   Outer-Iter.   Inner-Iter.     Column Row Layer    Max.-Head-Change    Column Row Layer    Max.-Flux-Residual            L2-New               L2-Old           Solver-Max-Delh
          0                 1           2            59   34     1       0.8092837568E+00      38   82    1       0.1761034358E+06      0.6584078043E+06      0.1983571556E+03      0.8092837568E+00
          0                 2           2             7  128     1       0.2381009153E+03       7  128    1       0.3953999636E+05      0.7640126612E+05      0.6584078043E+06      0.2381009153E+03
          1                 2           0             7  128     1       0.1666706378E+03       7  128    1      -0.4533042557E+08      0.4551288293E+08      0.7640126612E+05      0.2381009153E+03
          2                 2           0             7  128     1       0.1166694445E+03       7  128    1      -0.3171583274E+08      0.3184352117E+08      0.4551288293E+08      0.2381009153E+03
          3                 2           0             7  128     1       0.8166860976E+02       7  128    1      -0.2218561791E+08      0.2227497961E+08      0.3184352117E+08      0.2381009153E+03
          4                 2           0             7  128     1       0.5716802586E+02       7  128    1      -0.1551446765E+08      0.1557702009E+08      0.2227497961E+08      0.2381009153E+03
          5                 2           0             7  128     1       0.4001761742E+02       7  128    1      -0.1084466254E+08      0.1088847786E+08      0.1557702009E+08      0.2381009153E+03
          6                 2           0             7  128     1       0.2801233172E+02       7  128    1      -0.7576034644E+07      0.7606775868E+07      0.1088847786E+08      0.2381009153E+03
          7                 2           0             7  128     1       0.1960863187E+02       7  128    1      -0.5288139952E+07      0.5309790640E+07      0.7606775868E+07      0.2381009153E+03
          8                 2           0             7  128     1       0.1372604207E+02       7  128    1      -0.3686784038E+07      0.3702160029E+07      0.5309790640E+07      0.2381009153E+03
                                                   Max.-Head-Change                        Max.-Flux-Residual
  Residual-Control   Outer-Iter.   Inner-Iter.     Column Row Layer    Max.-Head-Change    Column Row Layer    Max.-Flux-Residual            L2-New               L2-Old           Solver-Max-Delh
          9                 2           0             7  128     1       0.9608229288E+01       7  128    1      -0.2565834929E+07      0.2576947973E+07      0.3702160029E+07      0.2381009153E+03
         10                 2           0             7  128     1       0.6725760387E+01       7  128    1      -0.1781170572E+07      0.1789487656E+07      0.2576947973E+07      0.2381009153E+03
         11                 2           0             7  128     1       0.4708032191E+01       7  128    1      -0.1231905534E+07      0.1238540997E+07      0.1789487656E+07      0.2381009153E+03
         12                 2           0             7  128     1       0.3295622477E+01       7  128    1      -0.8474200148E+06      0.8532861859E+06      0.1238540997E+07      0.2381009153E+03
         13                 2           0             7  128     1       0.2306935695E+01       7  128    1      -0.5782801570E+06      0.5842201739E+06      0.8532861859E+06      0.2381009153E+03
         14                 2           0             7  128     1       0.1614854959E+01       7  128    1      -0.3898822600E+06      0.3968112802E+06      0.5842201739E+06      0.2381009153E+03
         15                 2           0             7  128     1       0.1130398452E+01       7  128    1      -0.2580037346E+06      0.2670952177E+06      0.3968112802E+06      0.2381009153E+03
         16                 2           0             7  128     1       0.7912789029E+00       7  128    1      -0.1656887684E+06      0.1786610554E+06      0.2670952177E+06      0.2381009153E+03
         17                 2           0             7  128     1       0.5538952226E+00       7  128    1      -0.1010682932E+06      0.1206184340E+06      0.1786610554E+06      0.2381009153E+03
         18                 2           0             7  128     1       0.3877266492E+00       7  128    1      -0.5583396138E+05      0.8601421447E+05      0.1206184340E+06      0.2381009153E+03
                                                   Max.-Head-Change                        Max.-Flux-Residual
  Residual-Control   Outer-Iter.   Inner-Iter.     Column Row Layer    Max.-Head-Change    Column Row Layer    Max.-Flux-Residual            L2-New               L2-Old           Solver-Max-Delh
          0                 3           2             7  128     1      -0.1204998783E+00       7  128    1      -0.2416992964E+05      0.6962582977E+05      0.8601421447E+05     -0.1204998783E+00
          0                 4           2            69   15     1       0.9825006695E-01       7  128    1      -0.1208495827E+04      0.3509580834E+04      0.6962582977E+05      0.9825006695E-01

    ------------------------------------------------
       NWT REQUIRED            4 OUTER ITERATIONS 
       AND A TOTAL OF          8 INNER ITERATIONS.
    ------------------------------------------------

 OUTPUT CONTROL FOR STRESS PERIOD    1   TIME STEP  223
    SAVE HEAD FOR ALL LAYERS
    SAVE DRAWDOWN FOR ALL LAYERS
    SAVE BUDGET
    PRINT BUDGET
 UBDSV1 SAVING "         STORAGE" ON UNIT   9 AT TIME STEP223, STRESS PERIOD   1
 UBDSV2 SAVING "   CONSTANT HEAD" ON UNIT   9 AT TIME STEP223, STRESS PERIOD   1
 UBDSV1 SAVING "FLOW RIGHT FACE " ON UNIT   9 AT TIME STEP223, STRESS PERIOD   1
 UBDSV1 SAVING "FLOW FRONT FACE " ON UNIT   9 AT TIME STEP223, STRESS PERIOD   1
 UBDSV4 SAVING "   RIVER LEAKAGE" ON UNIT   9 AT TIME STEP223, STRESS PERIOD   1
 UBDSV3 SAVING "        RECHARGE" ON UNIT   9 AT TIME STEP223, STRESS PERIOD   1

 HEAD WILL BE SAVED ON UNIT   37 AT END OF TIME STEP  223, STRESS PERIOD    1

 DRAWDOWN WILL BE SAVED ON UNIT   38 AT END OF TIME STEP  223, STRESS PERIOD    1
1
  VOLUMETRIC BUDGET FOR ENTIRE MODEL AT END OF TIME STEP  223, STRESS PERIOD   1
  ------------------------------------------------------------------------------

     CUMULATIVE VOLUMES      L**3       RATES FOR THIS TIME STEP      L**3/T
     ------------------                 ------------------------

           IN:                                      IN:
           ---                                      ---
             STORAGE =   194960272.0000               STORAGE =      799329.4375
       CONSTANT HEAD =           0.0000         CONSTANT HEAD =           0.0000
       RIVER LEAKAGE =   906425856.0000         RIVER LEAKAGE =     5005010.0000
            RECHARGE =      182266.6250              RECHARGE =         167.3799

            TOTAL IN =  1101568384.0000              TOTAL IN =     5804507.0000

          OUT:                                     OUT:
          ----                                     ----
             STORAGE =  1095639168.0000               STORAGE =     5686154.5000
       CONSTANT HEAD =           0.0000         CONSTANT HEAD =           0.0000
       RIVER LEAKAGE =     6158029.5000         RIVER LEAKAGE =      119725.4766
            RECHARGE =           0.0000              RECHARGE =           0.0000

           TOTAL OUT =  1101797248.0000             TOTAL OUT =     5805880.0000

            IN - OUT =     -228864.0000              IN - OUT =       -1373.0000

 PERCENT DISCREPANCY =          -0.02     PERCENT DISCREPANCY =          -0.02






         TIME SUMMARY AT END OF TIME STEP  223 IN STRESS PERIOD    1
                    SECONDS     MINUTES      HOURS       DAYS        YEARS
                    -----------------------------------------------------------
   TIME STEP LENGTH  86400.      1440.0      24.000      1.0000     2.73785E-03
 STRESS PERIOD TIME 1.92672E+07 3.21120E+05  5352.0      223.00     0.61054    
         TOTAL TIME 1.92672E+07 3.21120E+05  5352.0      223.00     0.61054    
1
 
 SOLVING FOR HEAD 
                                                   Max.-Head-Change                        Max.-Flux-Residual
  Residual-Control   Outer-Iter.   Inner-Iter.     Column Row Layer    Max.-Head-Change    Column Row Layer    Max.-Flux-Residual            L2-New               L2-Old           Solver-Max-Delh
          0                 1           2            38   71     1      -0.4706854063E+00      36   74    1      -0.1176868879E+06      0.5458770588E+06      0.1927032552E+03     -0.4706854063E+00
          0                 2           2            27  114     1       0.8063158157E+02      27  114    1       0.3384575428E+05      0.6398256385E+05      0.5458770588E+06      0.8063158157E+02
          1                 2           0            27  114     1       0.5644210614E+02      27  114    1      -0.7996531796E+07      0.8018455249E+07      0.6398256385E+05      0.8063158157E+02
          2                 2           0            27  114     1       0.3950947362E+02      27  114    1      -0.5585176825E+07      0.5600446186E+07      0.8018455249E+07      0.8063158157E+02
          3                 2           0            27  114     1       0.2765663106E+02      27  114    1      -0.3897228374E+07      0.3907899317E+07      0.5600446186E+07      0.8063158157E+02
          4                 2           0            27  114     1       0.1935964142E+02      27  114    1      -0.2715664479E+07      0.2723202411E+07      0.3907899317E+07      0.8063158157E+02
          5                 2           0            27  114     1       0.1355174876E+02      27  114    1      -0.1888803366E+07      0.1894271698E+07      0.2723202411E+07      0.8063158157E+02
          6                 2           0            27  114     1       0.9486223970E+01      27  114    1      -0.1310092099E+07      0.1314292243E+07      0.1894271698E+07      0.8063158157E+02
          7                 2           0            27  114     1       0.6640356666E+01      27  114    1      -0.9049942274E+06      0.9085721418E+06      0.1314292243E+07      0.8063158157E+02
          8                 2           0            27  114     1       0.4648249587E+01      27  114    1      -0.6214460410E+06      0.6249826736E+06      0.9085721418E+06      0.8063158157E+02
                                                   Max.-Head-Change                        Max.-Flux-Residual
  Residual-Control   Outer-Iter.   Inner-Iter.     Column Row Layer    Max.-Head-Change    Column Row Layer    Max.-Flux-Residual            L2-New               L2-Old           Solver-Max-Delh
          9                 2           0            27  114     1       0.3253774656E+01      27  114    1      -0.4229954109E+06      0.4270977312E+06      0.6249826736E+06      0.8063158157E+02
         10                 2           0            27  114     1       0.2277642220E+01      27  114    1      -0.2840799746E+06      0.2894938597E+06      0.4270977312E+06      0.8063158157E+02
         11                 2           0            27  114     1       0.1594349527E+01      27  114    1      -0.1868391719E+06      0.1946143959E+06      0.2894938597E+06      0.8063158157E+02
         12                 2           0            27  114     1       0.1116044650E+01      27  114    1      -0.1187706118E+06      0.1304697685E+06      0.1946143959E+06      0.8063158157E+02
         13                 2           0            27  114     1       0.7812312416E+00      27  114    1      -0.7112262078E+05      0.8923123579E+05      0.1304697685E+06      0.8063158157E+02
          0                 3           2            36   73     1       0.3228620320E+01      27  114    1      -0.3776902777E+05      0.6582562102E+05      0.8923123579E+05      0.3228620320E+01
          1                 3           0            36   73     1       0.2260034186E+01      36   73    1      -0.2954088944E+06      0.2954280223E+06      0.6582562102E+05      0.3228620320E+01
          2                 3           0            36   73     1       0.1582023903E+01      36   73    1      -0.2045478255E+06      0.2057353874E+06      0.2954280223E+06      0.3228620320E+01
          3                 3           0            36   73     1       0.1107416713E+01      36   73    1      -0.1409461744E+06      0.1452731249E+06      0.2057353874E+06      0.3228620320E+01
          4                 3           0            36   73     1       0.7751916860E+00      36   73    1      -0.9643020572E+05      0.1061507077E+06      0.1452731249E+06      0.3228620320E+01
                                                   Max.-Head-Change                        Max.-Flux-Residual
  Residual-Control   Outer-Iter.   Inner-Iter.     Column Row Layer    Max.-Head-Change    Column Row Layer    Max.-Flux-Residual            L2-New               L2-Old           Solver-Max-Delh
          5                 3           0            36   73     1       0.5426341710E+00      36   73    1      -0.6526902843E+05      0.8271112251E+05      0.1061507077E+06      0.3228620320E+01
          0                 4           2            36   73     1      -0.4400923455E+00      36   73    1      -0.4345620483E+05      0.7033519934E+05      0.8271112251E+05     -0.4400923455E+00
          0                 5           2            69   15     1       0.9668876510E-01      36   73    1      -0.2172808643E+04      0.3556944945E+04      0.7033519934E+05      0.9668876510E-01

    ------------------------------------------------
       NWT REQUIRED            5 OUTER ITERATIONS 
       AND A TOTAL OF         10 INNER ITERATIONS.
    ------------------------------------------------

 OUTPUT CONTROL FOR STRESS PERIOD    1   TIME STEP  224
    SAVE HEAD FOR ALL LAYERS
    SAVE DRAWDOWN FOR ALL LAYERS
    SAVE BUDGET
    PRINT BUDGET
 UBDSV1 SAVING "         STORAGE" ON UNIT   9 AT TIME STEP224, STRESS PERIOD   1
 UBDSV2 SAVING "   CONSTANT HEAD" ON UNIT   9 AT TIME STEP224, STRESS PERIOD   1
 UBDSV1 SAVING "FLOW RIGHT FACE " ON UNIT   9 AT TIME STEP224, STRESS PERIOD   1
 UBDSV1 SAVING "FLOW FRONT FACE " ON UNIT   9 AT TIME STEP224, STRESS PERIOD   1
 UBDSV4 SAVING "   RIVER LEAKAGE" ON UNIT   9 AT TIME STEP224, STRESS PERIOD   1
 UBDSV3 SAVING "        RECHARGE" ON UNIT   9 AT TIME STEP224, STRESS PERIOD   1

 HEAD WILL BE SAVED ON UNIT   37 AT END OF TIME STEP  224, STRESS PERIOD    1

 DRAWDOWN WILL BE SAVED ON UNIT   38 AT END OF TIME STEP  224, STRESS PERIOD    1
1
  VOLUMETRIC BUDGET FOR ENTIRE MODEL AT END OF TIME STEP  224, STRESS PERIOD   1
  ------------------------------------------------------------------------------

     CUMULATIVE VOLUMES      L**3       RATES FOR THIS TIME STEP      L**3/T
     ------------------                 ------------------------

           IN:                                      IN:
           ---                                      ---
             STORAGE =   195761424.0000               STORAGE =      801149.6875
       CONSTANT HEAD =           0.0000         CONSTANT HEAD =           0.0000
       RIVER LEAKAGE =   910276416.0000         RIVER LEAKAGE =     3850558.0000
            RECHARGE =      182487.2031              RECHARGE =         220.5745

            TOTAL IN =  1106220288.0000              TOTAL IN =     4651928.0000

          OUT:                                     OUT:
          ----                                     ----
             STORAGE =  1100168064.0000               STORAGE =     4528950.0000
       CONSTANT HEAD =           0.0000         CONSTANT HEAD =           0.0000
       RIVER LEAKAGE =     6281719.0000         RIVER LEAKAGE =      123689.5625
            RECHARGE =           0.0000              RECHARGE =           0.0000

           TOTAL OUT =  1106449792.0000             TOTAL OUT =     4652639.5000

            IN - OUT =     -229504.0000              IN - OUT =        -711.5000

 PERCENT DISCREPANCY =          -0.02     PERCENT DISCREPANCY =          -0.02






         TIME SUMMARY AT END OF TIME STEP  224 IN STRESS PERIOD    1
                    SECONDS     MINUTES      HOURS       DAYS        YEARS
                    -----------------------------------------------------------
   TIME STEP LENGTH  86400.      1440.0      24.000      1.0000     2.73785E-03
 STRESS PERIOD TIME 1.93536E+07 3.22560E+05  5376.0      224.00     0.61328    
         TOTAL TIME 1.93536E+07 3.22560E+05  5376.0      224.00     0.61328    
1
 
 SOLVING FOR HEAD 
                                                   Max.-Head-Change                        Max.-Flux-Residual
  Residual-Control   Outer-Iter.   Inner-Iter.     Column Row Layer    Max.-Head-Change    Column Row Layer    Max.-Flux-Residual            L2-New               L2-Old           Solver-Max-Delh
          0                 1           2            36   73     1       0.5919002237E+00      38   82    1       0.1355324319E+06      0.5529353679E+06      0.2017942115E+03      0.5919002237E+00
          0                 2           2            69   15     1       0.9616743966E-01      38   82    1      -0.1355351596E+05      0.5529414058E+05      0.5529353679E+06      0.9616743966E-01
          0                 3           2            69   15     1       0.9529386307E-01      38   82    1      -0.6776774875E+03      0.2764710504E+04      0.5529414058E+05      0.9529386307E-01

    ------------------------------------------------
       NWT REQUIRED            3 OUTER ITERATIONS 
       AND A TOTAL OF          6 INNER ITERATIONS.
    ------------------------------------------------

 OUTPUT CONTROL FOR STRESS PERIOD    1   TIME STEP  225
    SAVE HEAD FOR ALL LAYERS
    SAVE DRAWDOWN FOR ALL LAYERS
    SAVE BUDGET
    PRINT BUDGET
 UBDSV1 SAVING "         STORAGE" ON UNIT   9 AT TIME STEP225, STRESS PERIOD   1
 UBDSV2 SAVING "   CONSTANT HEAD" ON UNIT   9 AT TIME STEP225, STRESS PERIOD   1
 UBDSV1 SAVING "FLOW RIGHT FACE " ON UNIT   9 AT TIME STEP225, STRESS PERIOD   1
 UBDSV1 SAVING "FLOW FRONT FACE " ON UNIT   9 AT TIME STEP225, STRESS PERIOD   1
 UBDSV4 SAVING "   RIVER LEAKAGE" ON UNIT   9 AT TIME STEP225, STRESS PERIOD   1
 UBDSV3 SAVING "        RECHARGE" ON UNIT   9 AT TIME STEP225, STRESS PERIOD   1

 HEAD WILL BE SAVED ON UNIT   37 AT END OF TIME STEP  225, STRESS PERIOD    1

 DRAWDOWN WILL BE SAVED ON UNIT   38 AT END OF TIME STEP  225, STRESS PERIOD    1
1
  VOLUMETRIC BUDGET FOR ENTIRE MODEL AT END OF TIME STEP  225, STRESS PERIOD   1
  ------------------------------------------------------------------------------

     CUMULATIVE VOLUMES      L**3       RATES FOR THIS TIME STEP      L**3/T
     ------------------                 ------------------------

           IN:                                      IN:
           ---                                      ---
             STORAGE =   196559568.0000               STORAGE =      798149.5000
       CONSTANT HEAD =           0.0000         CONSTANT HEAD =           0.0000
       RIVER LEAKAGE =   914589888.0000         RIVER LEAKAGE =     4313467.0000
            RECHARGE =      182764.7969              RECHARGE =         277.5861

            TOTAL IN =  1111332224.0000              TOTAL IN =     5111894.0000

          OUT:                                     OUT:
          ----                                     ----
             STORAGE =  1105158016.0000               STORAGE =     4990008.5000
       CONSTANT HEAD =           0.0000         CONSTANT HEAD =           0.0000
       RIVER LEAKAGE =     6404947.0000         RIVER LEAKAGE =      123228.2109
            RECHARGE =           0.0000              RECHARGE =           0.0000

           TOTAL OUT =  1111563008.0000             TOTAL OUT =     5113236.5000

            IN - OUT =     -230784.0000              IN - OUT =       -1342.5000

 PERCENT DISCREPANCY =          -0.02     PERCENT DISCREPANCY =          -0.03






         TIME SUMMARY AT END OF TIME STEP  225 IN STRESS PERIOD    1
                    SECONDS     MINUTES      HOURS       DAYS        YEARS
                    -----------------------------------------------------------
   TIME STEP LENGTH  86400.      1440.0      24.000      1.0000     2.73785E-03
 STRESS PERIOD TIME 1.94400E+07 3.24000E+05  5400.0      225.00     0.61602    
         TOTAL TIME 1.94400E+07 3.24000E+05  5400.0      225.00     0.61602    
1
 
 SOLVING FOR HEAD 
                                                   Max.-Head-Change                        Max.-Flux-Residual
  Residual-Control   Outer-Iter.   Inner-Iter.     Column Row Layer    Max.-Head-Change    Column Row Layer    Max.-Flux-Residual            L2-New               L2-Old           Solver-Max-Delh
          0                 1           2            54   48     1       0.3734024474E+00      38   82    1       0.1392855360E+06      0.5473194640E+06      0.1382161036E+03      0.3734024474E+00
          0                 2           2            63   16     1       0.9261253802E+01      38   82    1      -0.1392884169E+05      0.5472576745E+05      0.5473194640E+06      0.9261253802E+01
          1                 2           0            63   16     1       0.6482877551E+01      63   16    1      -0.7295524416E+06      0.7295575689E+06      0.5472576745E+05      0.9261253802E+01
          2                 2           0            63   16     1       0.4538014208E+01      63   16    1      -0.5086323467E+06      0.5089623752E+06      0.7295575689E+06      0.9261253802E+01
          3                 2           0            63   16     1       0.3176609892E+01      63   16    1      -0.3539882828E+06      0.3551938026E+06      0.5089623752E+06      0.9261253802E+01
          4                 2           0            63   16     1       0.2223626886E+01      63   16    1      -0.2457374398E+06      0.2484892822E+06      0.3551938026E+06      0.9261253802E+01
          5                 2           0            63   16     1       0.1556538794E+01      63   16    1      -0.1699618510E+06      0.1751287653E+06      0.2484892822E+06      0.9261253802E+01
          6                 2           0            63   16     1       0.1089577137E+01      63   16    1      -0.1169189398E+06      0.1256313488E+06      0.1751287653E+06      0.9261253802E+01
          7                 2           0            63   16     1       0.7627039830E+00      63   16    1      -0.7978890250E+05      0.9341970640E+05      0.1256313488E+06      0.9261253802E+01
          8                 2           0            63   16     1       0.5338927790E+00      63   16    1      -0.5379787685E+05      0.7373464191E+05      0.9341970640E+05      0.9261253802E+01
                                                   Max.-Head-Change                        Max.-Flux-Residual
  Residual-Control   Outer-Iter.   Inner-Iter.     Column Row Layer    Max.-Head-Change    Column Row Layer    Max.-Flux-Residual            L2-New               L2-Old           Solver-Max-Delh
          9                 2           0            63   16     1       0.3737249390E+00      63   16    1      -0.3560415921E+05      0.6278037038E+05      0.7373464191E+05      0.9261253802E+01
          0                 3           2            63   16     1      -0.2732237492E+00      63   16    1      -0.2286855708E+05      0.5736239566E+05      0.6278037038E+05     -0.2732237492E+00
          0                 4           2            69   15     1       0.9387258002E-01      63   16    1      -0.1143427303E+04      0.2867640402E+04      0.5736239566E+05      0.9387258002E-01

    ------------------------------------------------
       NWT REQUIRED            4 OUTER ITERATIONS 
       AND A TOTAL OF          8 INNER ITERATIONS.
    ------------------------------------------------

 OUTPUT CONTROL FOR STRESS PERIOD    1   TIME STEP  226
    SAVE HEAD FOR ALL LAYERS
    SAVE DRAWDOWN FOR ALL LAYERS
    SAVE BUDGET
    PRINT BUDGET
 UBDSV1 SAVING "         STORAGE" ON UNIT   9 AT TIME STEP226, STRESS PERIOD   1
 UBDSV2 SAVING "   CONSTANT HEAD" ON UNIT   9 AT TIME STEP226, STRESS PERIOD   1
 UBDSV1 SAVING "FLOW RIGHT FACE " ON UNIT   9 AT TIME STEP226, STRESS PERIOD   1
 UBDSV1 SAVING "FLOW FRONT FACE " ON UNIT   9 AT TIME STEP226, STRESS PERIOD   1
 UBDSV4 SAVING "   RIVER LEAKAGE" ON UNIT   9 AT TIME STEP226, STRESS PERIOD   1
 UBDSV3 SAVING "        RECHARGE" ON UNIT   9 AT TIME STEP226, STRESS PERIOD   1

 HEAD WILL BE SAVED ON UNIT   37 AT END OF TIME STEP  226, STRESS PERIOD    1

 DRAWDOWN WILL BE SAVED ON UNIT   38 AT END OF TIME STEP  226, STRESS PERIOD    1
1
  VOLUMETRIC BUDGET FOR ENTIRE MODEL AT END OF TIME STEP  226, STRESS PERIOD   1
  ------------------------------------------------------------------------------

     CUMULATIVE VOLUMES      L**3       RATES FOR THIS TIME STEP      L**3/T
     ------------------                 ------------------------

           IN:                                      IN:
           ---                                      ---
             STORAGE =   197357184.0000               STORAGE =      797616.0000
       CONSTANT HEAD =           0.0000         CONSTANT HEAD =           0.0000
       RIVER LEAKAGE =   919004864.0000         RIVER LEAKAGE =     4414965.0000
            RECHARGE =      183096.7188              RECHARGE =         331.9181

            TOTAL IN =  1116545152.0000              TOTAL IN =     5212913.0000

          OUT:                                     OUT:
          ----                                     ----
             STORAGE =  1110247808.0000               STORAGE =     5089808.0000
       CONSTANT HEAD =           0.0000         CONSTANT HEAD =           0.0000
       RIVER LEAKAGE =     6529186.0000         RIVER LEAKAGE =      124238.9688
            RECHARGE =           0.0000              RECHARGE =           0.0000

           TOTAL OUT =  1116776960.0000             TOTAL OUT =     5214047.0000

            IN - OUT =     -231808.0000              IN - OUT =       -1134.0000

 PERCENT DISCREPANCY =          -0.02     PERCENT DISCREPANCY =          -0.02






         TIME SUMMARY AT END OF TIME STEP  226 IN STRESS PERIOD    1
                    SECONDS     MINUTES      HOURS       DAYS        YEARS
                    -----------------------------------------------------------
   TIME STEP LENGTH  86400.      1440.0      24.000      1.0000     2.73785E-03
 STRESS PERIOD TIME 1.95264E+07 3.25440E+05  5424.0      226.00     0.61875    
         TOTAL TIME 1.95264E+07 3.25440E+05  5424.0      226.00     0.61875    
1
 
 SOLVING FOR HEAD 
                                                   Max.-Head-Change                        Max.-Flux-Residual
  Residual-Control   Outer-Iter.   Inner-Iter.     Column Row Layer    Max.-Head-Change    Column Row Layer    Max.-Flux-Residual            L2-New               L2-Old           Solver-Max-Delh
          0                 1           2            54   48     1       0.3720686867E+00      38   82    1       0.1509315122E+06      0.5966209573E+06      0.1433370656E+03      0.3720686867E+00
          0                 2           2            33   92     1       0.1281856628E+03      33   92    1       0.4041841026E+05      0.7148060937E+05      0.5966209573E+06      0.1281856628E+03
          1                 2           0            33   92     1       0.8972996245E+02      33   92    1      -0.1975969125E+08      0.1975969317E+08      0.7148060937E+05      0.1281856628E+03
          2                 2           0            33   92     1       0.6281097264E+02      33   92    1      -0.1381697834E+08      0.1381699392E+08      0.1975969317E+08      0.1281856628E+03
          3                 2           0            33   92     1       0.4396768010E+02      33   92    1      -0.9657079367E+07      0.9657132078E+07      0.1381699392E+08      0.1281856628E+03
          4                 2           0            33   92     1       0.3077737555E+02      33   92    1      -0.6745150138E+07      0.6745268391E+07      0.9657132078E+07      0.1281856628E+03
          5                 2           0            33   92     1       0.2154416252E+02      33   92    1      -0.4706799712E+07      0.4707020740E+07      0.6745268391E+07      0.1281856628E+03
          6                 2           0            33   92     1       0.1508091350E+02      33   92    1      -0.3280222659E+07      0.3280597667E+07      0.4707020740E+07      0.1281856628E+03
          7                 2           0            33   92     1       0.1055663927E+02      33   92    1      -0.2281744286E+07      0.2282345776E+07      0.3280597667E+07      0.1281856628E+03
          8                 2           0            33   92     1       0.7389647366E+01      33   92    1      -0.1582899137E+07      0.1583831784E+07      0.2282345776E+07      0.1281856628E+03
                                                   Max.-Head-Change                        Max.-Flux-Residual
  Residual-Control   Outer-Iter.   Inner-Iter.     Column Row Layer    Max.-Head-Change    Column Row Layer    Max.-Flux-Residual            L2-New               L2-Old           Solver-Max-Delh
          9                 2           0            33   92     1       0.5172753068E+01      33   92    1      -0.1093682210E+07      0.1095100424E+07      0.1583831784E+07      0.1281856628E+03
         10                 2           0            33   92     1       0.3620927086E+01      33   92    1      -0.7511367756E+06      0.7532727890E+06      0.1095100424E+07      0.1281856628E+03
         11                 2           0            33   92     1       0.2534648917E+01      33   92    1      -0.5113549772E+06      0.5145628944E+06      0.7532727890E+06      0.1281856628E+03
         12                 2           0            33   92     1       0.1774254212E+01      33   92    1      -0.3435036828E+06      0.3483399639E+06      0.5145628944E+06      0.1281856628E+03
         13                 2           0            33   92     1       0.1241977927E+01      33   92    1      -0.2259977254E+06      0.2333658633E+06      0.3483399639E+06      0.1281856628E+03
         14                 2           0            33   92     1       0.8693845341E+00      33   92    1      -0.1437435570E+06      0.1551582732E+06      0.2333658633E+06      0.1281856628E+03
         15                 2           0            33   92     1       0.6085691635E+00      33   92    1      -0.8616564026E+05      0.1041898256E+06      0.1551582732E+06      0.1281856628E+03
          0                 3           2            33   92     1      -0.2819445452E+00      33   92    1      -0.4586109935E+05      0.7448261743E+05      0.1041898256E+06     -0.2819445452E+00
          0                 4           2            69   15     1       0.9249166658E-01      33   92    1      -0.2293071018E+04      0.4323581156E+04      0.7448261743E+05      0.9249166658E-01

    ------------------------------------------------
       NWT REQUIRED            4 OUTER ITERATIONS 
       AND A TOTAL OF          8 INNER ITERATIONS.
    ------------------------------------------------

 OUTPUT CONTROL FOR STRESS PERIOD    1   TIME STEP  227
    SAVE HEAD FOR ALL LAYERS
    SAVE DRAWDOWN FOR ALL LAYERS
    SAVE BUDGET
    PRINT BUDGET
 UBDSV1 SAVING "         STORAGE" ON UNIT   9 AT TIME STEP227, STRESS PERIOD   1
 UBDSV2 SAVING "   CONSTANT HEAD" ON UNIT   9 AT TIME STEP227, STRESS PERIOD   1
 UBDSV1 SAVING "FLOW RIGHT FACE " ON UNIT   9 AT TIME STEP227, STRESS PERIOD   1
 UBDSV1 SAVING "FLOW FRONT FACE " ON UNIT   9 AT TIME STEP227, STRESS PERIOD   1
 UBDSV4 SAVING "   RIVER LEAKAGE" ON UNIT   9 AT TIME STEP227, STRESS PERIOD   1
 UBDSV3 SAVING "        RECHARGE" ON UNIT   9 AT TIME STEP227, STRESS PERIOD   1

 HEAD WILL BE SAVED ON UNIT   37 AT END OF TIME STEP  227, STRESS PERIOD    1

 DRAWDOWN WILL BE SAVED ON UNIT   38 AT END OF TIME STEP  227, STRESS PERIOD    1
1
  VOLUMETRIC BUDGET FOR ENTIRE MODEL AT END OF TIME STEP  227, STRESS PERIOD   1
  ------------------------------------------------------------------------------

     CUMULATIVE VOLUMES      L**3       RATES FOR THIS TIME STEP      L**3/T
     ------------------                 ------------------------

           IN:                                      IN:
           ---                                      ---
             STORAGE =   198154240.0000               STORAGE =      797059.8125
       CONSTANT HEAD =           0.0000         CONSTANT HEAD =           0.0000
       RIVER LEAKAGE =   923687104.0000         RIVER LEAKAGE =     4682266.0000
            RECHARGE =      183474.9062              RECHARGE =         378.1938

            TOTAL IN =  1122024832.0000              TOTAL IN =     5479704.0000

          OUT:                                     OUT:
          ----                                     ----
             STORAGE =  1115605120.0000               STORAGE =     5357290.0000
       CONSTANT HEAD =           0.0000         CONSTANT HEAD =           0.0000
       RIVER LEAKAGE =     6653115.5000         RIVER LEAKAGE =      123929.4922
            RECHARGE =           0.0000              RECHARGE =           0.0000

           TOTAL OUT =  1122258176.0000             TOTAL OUT =     5481219.5000

            IN - OUT =     -233344.0000              IN - OUT =       -1515.5000

 PERCENT DISCREPANCY =          -0.02     PERCENT DISCREPANCY =          -0.03






         TIME SUMMARY AT END OF TIME STEP  227 IN STRESS PERIOD    1
                    SECONDS     MINUTES      HOURS       DAYS        YEARS
                    -----------------------------------------------------------
   TIME STEP LENGTH  86400.      1440.0      24.000      1.0000     2.73785E-03
 STRESS PERIOD TIME 1.96128E+07 3.26880E+05  5448.0      227.00     0.62149    
         TOTAL TIME 1.96128E+07 3.26880E+05  5448.0      227.00     0.62149    
1
 
 SOLVING FOR HEAD 
                                                   Max.-Head-Change                        Max.-Flux-Residual
  Residual-Control   Outer-Iter.   Inner-Iter.     Column Row Layer    Max.-Head-Change    Column Row Layer    Max.-Flux-Residual            L2-New               L2-Old           Solver-Max-Delh
          0                 1           2            33   92     1       0.4530794566E+00      38   82    1       0.1714908530E+06      0.6798350269E+06      0.2161325429E+03      0.4530794566E+00
          0                 2           2            33   91     1       0.1065210365E+03      33   91    1       0.5245468529E+05      0.8538964308E+05      0.6798350269E+06      0.1065210365E+03
          1                 2           0            33   91     1       0.7456472431E+02      33   91    1      -0.1558439347E+08      0.1617408797E+08      0.8538964308E+05      0.1065210365E+03
          2                 2           0            33   91     1       0.5219530613E+02      33   91    1      -0.1089047960E+08      0.1130214414E+08      0.1617408797E+08      0.1065210365E+03
          3                 2           0            33   91     1       0.3653671367E+02      33   91    1      -0.7604739946E+07      0.7891826887E+07      0.1130214414E+08      0.1065210365E+03
          4                 2           0            33   91     1       0.2557569913E+02      33   91    1      -0.5305132949E+07      0.5505063080E+07      0.7891826887E+07      0.1065210365E+03
          5                 2           0            33   91     1       0.1790298909E+02      33   91    1      -0.3696203071E+07      0.3835183799E+07      0.5505063080E+07      0.1065210365E+03
          6                 2           0            33   91     1       0.1253209215E+02      33   91    1      -0.2569952182E+07      0.2666397663E+07      0.3835183799E+07      0.1065210365E+03
          7                 2           0            33   91     1       0.8772464354E+01      33   91    1      -0.1781576576E+07      0.1848437931E+07      0.2666397663E+07      0.1065210365E+03
          8                 2           0            33   91     1       0.6140724943E+01      33   91    1      -0.1229709777E+07      0.1276143009E+07      0.1848437931E+07      0.1065210365E+03
                                                   Max.-Head-Change                        Max.-Flux-Residual
  Residual-Control   Outer-Iter.   Inner-Iter.     Column Row Layer    Max.-Head-Change    Column Row Layer    Max.-Flux-Residual            L2-New               L2-Old           Solver-Max-Delh
          9                 2           0            33   91     1       0.4298507387E+01      33   91    1      -0.8433969294E+06      0.8759493537E+06      0.1276143009E+07      0.1065210365E+03
         10                 2           0            33   91     1       0.3008955120E+01      33   91    1      -0.5729779413E+06      0.5964497758E+06      0.8759493537E+06      0.1065210365E+03
         11                 2           0            33   91     1       0.2106268548E+01      33   91    1      -0.3836846530E+06      0.4017907178E+06      0.5964497758E+06      0.1065210365E+03
         12                 2           0            33   91     1       0.1474387958E+01      33   91    1      -0.2511793536E+06      0.2671246199E+06      0.4017907178E+06      0.1065210365E+03
         13                 2           0            33   91     1       0.1032071553E+01      33   91    1      -0.1584256456E+06      0.1755297125E+06      0.2671246199E+06      0.1065210365E+03
         14                 2           0            33   91     1       0.7224500750E+00      33   91    1      -0.9349805112E+05      0.1160163096E+06      0.1755297125E+06      0.1065210365E+03
          0                 3           2            33   91     1      -0.3109962447E+00      33   91    1      -0.4804873578E+05      0.8197019304E+05      0.1160163096E+06     -0.3109962447E+00
          0                 4           2            69   15     1       0.9111867298E-01      33   91    1      -0.2404060036E+04      0.4098931789E+04      0.8197019304E+05      0.9111867298E-01

    ------------------------------------------------
       NWT REQUIRED            4 OUTER ITERATIONS 
       AND A TOTAL OF          8 INNER ITERATIONS.
    ------------------------------------------------

 OUTPUT CONTROL FOR STRESS PERIOD    1   TIME STEP  228
    SAVE HEAD FOR ALL LAYERS
    SAVE DRAWDOWN FOR ALL LAYERS
    SAVE BUDGET
    PRINT BUDGET
 UBDSV1 SAVING "         STORAGE" ON UNIT   9 AT TIME STEP228, STRESS PERIOD   1
 UBDSV2 SAVING "   CONSTANT HEAD" ON UNIT   9 AT TIME STEP228, STRESS PERIOD   1
 UBDSV1 SAVING "FLOW RIGHT FACE " ON UNIT   9 AT TIME STEP228, STRESS PERIOD   1
 UBDSV1 SAVING "FLOW FRONT FACE " ON UNIT   9 AT TIME STEP228, STRESS PERIOD   1
 UBDSV4 SAVING "   RIVER LEAKAGE" ON UNIT   9 AT TIME STEP228, STRESS PERIOD   1
 UBDSV3 SAVING "        RECHARGE" ON UNIT   9 AT TIME STEP228, STRESS PERIOD   1

 HEAD WILL BE SAVED ON UNIT   37 AT END OF TIME STEP  228, STRESS PERIOD    1

 DRAWDOWN WILL BE SAVED ON UNIT   38 AT END OF TIME STEP  228, STRESS PERIOD    1
1
  VOLUMETRIC BUDGET FOR ENTIRE MODEL AT END OF TIME STEP  228, STRESS PERIOD   1
  ------------------------------------------------------------------------------

     CUMULATIVE VOLUMES      L**3       RATES FOR THIS TIME STEP      L**3/T
     ------------------                 ------------------------

           IN:                                      IN:
           ---                                      ---
             STORAGE =   198950688.0000               STORAGE =      796440.8750
       CONSTANT HEAD =           0.0000         CONSTANT HEAD =           0.0000
       RIVER LEAKAGE =   928816960.0000         RIVER LEAKAGE =     5129840.0000
            RECHARGE =      183887.9375              RECHARGE =         413.0264

            TOTAL IN =  1127951488.0000              TOTAL IN =     5926694.0000

          OUT:                                     OUT:
          ----                                     ----
             STORAGE =  1121408000.0000               STORAGE =     5802939.0000
       CONSTANT HEAD =           0.0000         CONSTANT HEAD =           0.0000
       RIVER LEAKAGE =     6778520.5000         RIVER LEAKAGE =      125405.1172
            RECHARGE =           0.0000              RECHARGE =           0.0000

           TOTAL OUT =  1128186496.0000             TOTAL OUT =     5928344.0000

            IN - OUT =     -235008.0000              IN - OUT =       -1650.0000

 PERCENT DISCREPANCY =          -0.02     PERCENT DISCREPANCY =          -0.03






         TIME SUMMARY AT END OF TIME STEP  228 IN STRESS PERIOD    1
                    SECONDS     MINUTES      HOURS       DAYS        YEARS
                    -----------------------------------------------------------
   TIME STEP LENGTH  86400.      1440.0      24.000      1.0000     2.73785E-03
 STRESS PERIOD TIME 1.96992E+07 3.28320E+05  5472.0      228.00     0.62423    
         TOTAL TIME 1.96992E+07 3.28320E+05  5472.0      228.00     0.62423    
1
 
 SOLVING FOR HEAD 
                                                   Max.-Head-Change                        Max.-Flux-Residual
  Residual-Control   Outer-Iter.   Inner-Iter.     Column Row Layer    Max.-Head-Change    Column Row Layer    Max.-Flux-Residual            L2-New               L2-Old           Solver-Max-Delh
          0                 1           2            34   94     1       0.5861995189E+00      38   82    1       0.1515052964E+06      0.5966400810E+06      0.2048844856E+03      0.5861995189E+00
          0                 2           2            69   15     1       0.9060809278E-01      38   82    1      -0.1515087047E+05      0.5966484244E+05      0.5966400810E+06      0.9060809278E-01
          0                 3           2            69   15     1       0.8976161576E-01      38   82    1      -0.7575456809E+03      0.2983246616E+04      0.5966484244E+05      0.8976161576E-01

    ------------------------------------------------
       NWT REQUIRED            3 OUTER ITERATIONS 
       AND A TOTAL OF          6 INNER ITERATIONS.
    ------------------------------------------------

 OUTPUT CONTROL FOR STRESS PERIOD    1   TIME STEP  229
    SAVE HEAD FOR ALL LAYERS
    SAVE DRAWDOWN FOR ALL LAYERS
    SAVE BUDGET
    PRINT BUDGET
 UBDSV1 SAVING "         STORAGE" ON UNIT   9 AT TIME STEP229, STRESS PERIOD   1
 UBDSV2 SAVING "   CONSTANT HEAD" ON UNIT   9 AT TIME STEP229, STRESS PERIOD   1
 UBDSV1 SAVING "FLOW RIGHT FACE " ON UNIT   9 AT TIME STEP229, STRESS PERIOD   1
 UBDSV1 SAVING "FLOW FRONT FACE " ON UNIT   9 AT TIME STEP229, STRESS PERIOD   1
 UBDSV4 SAVING "   RIVER LEAKAGE" ON UNIT   9 AT TIME STEP229, STRESS PERIOD   1
 UBDSV3 SAVING "        RECHARGE" ON UNIT   9 AT TIME STEP229, STRESS PERIOD   1

 HEAD WILL BE SAVED ON UNIT   37 AT END OF TIME STEP  229, STRESS PERIOD    1

 DRAWDOWN WILL BE SAVED ON UNIT   38 AT END OF TIME STEP  229, STRESS PERIOD    1
1
  VOLUMETRIC BUDGET FOR ENTIRE MODEL AT END OF TIME STEP  229, STRESS PERIOD   1
  ------------------------------------------------------------------------------

     CUMULATIVE VOLUMES      L**3       RATES FOR THIS TIME STEP      L**3/T
     ------------------                 ------------------------

           IN:                                      IN:
           ---                                      ---
             STORAGE =   199748160.0000               STORAGE =      797465.8750
       CONSTANT HEAD =           0.0000         CONSTANT HEAD =           0.0000
       RIVER LEAKAGE =   933292096.0000         RIVER LEAKAGE =     4475134.5000
            RECHARGE =      184323.0469              RECHARGE =         435.1057

            TOTAL IN =  1133224576.0000              TOTAL IN =     5273035.5000

          OUT:                                     OUT:
          ----                                     ----
             STORAGE =  1126549888.0000               STORAGE =     5141917.5000
       CONSTANT HEAD =           0.0000         CONSTANT HEAD =           0.0000
       RIVER LEAKAGE =     6910458.5000         RIVER LEAKAGE =      131937.7812
            RECHARGE =           0.0000              RECHARGE =           0.0000

           TOTAL OUT =  1133460352.0000             TOTAL OUT =     5273855.5000

            IN - OUT =     -235776.0000              IN - OUT =        -820.0000

 PERCENT DISCREPANCY =          -0.02     PERCENT DISCREPANCY =          -0.02






         TIME SUMMARY AT END OF TIME STEP  229 IN STRESS PERIOD    1
                    SECONDS     MINUTES      HOURS       DAYS        YEARS
                    -----------------------------------------------------------
   TIME STEP LENGTH  86400.      1440.0      24.000      1.0000     2.73785E-03
 STRESS PERIOD TIME 1.97856E+07 3.29760E+05  5496.0      229.00     0.62697    
         TOTAL TIME 1.97856E+07 3.29760E+05  5496.0      229.00     0.62697    
1
 
 SOLVING FOR HEAD 
                                                   Max.-Head-Change                        Max.-Flux-Residual
  Residual-Control   Outer-Iter.   Inner-Iter.     Column Row Layer    Max.-Head-Change    Column Row Layer    Max.-Flux-Residual            L2-New               L2-Old           Solver-Max-Delh
          0                 1           2            54   48     1       0.3677854567E+00      38   82    1       0.1624608479E+06      0.6166052520E+06      0.1491396305E+03      0.3677854567E+00
          0                 2           2            69   15     1       0.8925473490E-01      38   82    1      -0.1624647669E+05      0.6166136931E+05      0.6166052520E+06      0.8925473490E-01
          0                 3           2            69   15     1      -0.8297065042E-01      69   15    1      -0.8734189760E+04      0.9262365303E+04      0.6166136931E+05     -0.8297065042E-01

    ------------------------------------------------
       NWT REQUIRED            3 OUTER ITERATIONS 
       AND A TOTAL OF          6 INNER ITERATIONS.
    ------------------------------------------------

 OUTPUT CONTROL FOR STRESS PERIOD    1   TIME STEP  230
    SAVE HEAD FOR ALL LAYERS
    SAVE DRAWDOWN FOR ALL LAYERS
    SAVE BUDGET
    PRINT BUDGET
 UBDSV1 SAVING "         STORAGE" ON UNIT   9 AT TIME STEP230, STRESS PERIOD   1
 UBDSV2 SAVING "   CONSTANT HEAD" ON UNIT   9 AT TIME STEP230, STRESS PERIOD   1
 UBDSV1 SAVING "FLOW RIGHT FACE " ON UNIT   9 AT TIME STEP230, STRESS PERIOD   1
 UBDSV1 SAVING "FLOW FRONT FACE " ON UNIT   9 AT TIME STEP230, STRESS PERIOD   1
 UBDSV4 SAVING "   RIVER LEAKAGE" ON UNIT   9 AT TIME STEP230, STRESS PERIOD   1
 UBDSV3 SAVING "        RECHARGE" ON UNIT   9 AT TIME STEP230, STRESS PERIOD   1

 HEAD WILL BE SAVED ON UNIT   37 AT END OF TIME STEP  230, STRESS PERIOD    1

 DRAWDOWN WILL BE SAVED ON UNIT   38 AT END OF TIME STEP  230, STRESS PERIOD    1
1
  VOLUMETRIC BUDGET FOR ENTIRE MODEL AT END OF TIME STEP  230, STRESS PERIOD   1
  ------------------------------------------------------------------------------

     CUMULATIVE VOLUMES      L**3       RATES FOR THIS TIME STEP      L**3/T
     ------------------                 ------------------------

           IN:                                      IN:
           ---                                      ---
             STORAGE =   200543568.0000               STORAGE =      795412.3125
       CONSTANT HEAD =           0.0000         CONSTANT HEAD =           0.0000
       RIVER LEAKAGE =   938053184.0000         RIVER LEAKAGE =     4761111.5000
            RECHARGE =      184767.8750              RECHARGE =         444.8261

            TOTAL IN =  1138781568.0000              TOTAL IN =     5556969.0000

          OUT:                                     OUT:
          ----                                     ----
             STORAGE =  1131978112.0000               STORAGE =     5428241.0000
       CONSTANT HEAD =           0.0000         CONSTANT HEAD =           0.0000
       RIVER LEAKAGE =     7040941.0000         RIVER LEAKAGE =      130482.7266
            RECHARGE =           0.0000              RECHARGE =           0.0000

           TOTAL OUT =  1139019008.0000             TOTAL OUT =     5558723.5000

            IN - OUT =     -237440.0000              IN - OUT =       -1754.5000

 PERCENT DISCREPANCY =          -0.02     PERCENT DISCREPANCY =          -0.03






         TIME SUMMARY AT END OF TIME STEP  230 IN STRESS PERIOD    1
                    SECONDS     MINUTES      HOURS       DAYS        YEARS
                    -----------------------------------------------------------
   TIME STEP LENGTH  86400.      1440.0      24.000      1.0000     2.73785E-03
 STRESS PERIOD TIME 1.98720E+07 3.31200E+05  5520.0      230.00     0.62971    
         TOTAL TIME 1.98720E+07 3.31200E+05  5520.0      230.00     0.62971    
1
 
 SOLVING FOR HEAD 
                                                   Max.-Head-Change                        Max.-Flux-Residual
  Residual-Control   Outer-Iter.   Inner-Iter.     Column Row Layer    Max.-Head-Change    Column Row Layer    Max.-Flux-Residual            L2-New               L2-Old           Solver-Max-Delh
          0                 1           2            33   92     1       0.8459986634E+00      26  115    1       0.4376321770E+06      0.1696361266E+07      0.4631743574E+03      0.8459986634E+00
          0                 2           2            37   76     1       0.8530032944E+00      37   76    1       0.1146745133E+06      0.2035294837E+06      0.1696361266E+07      0.8530032944E+00
          0                 3           2            28   67     1       0.7485300416E-01      37   76    1      -0.1146710727E+05      0.1421801291E+05      0.2035294837E+06      0.7485300416E-01
          0                 4           2            28   67     1       0.7471243436E-01      37   76    1      -0.5733550782E+03      0.7108516657E+03      0.1421801291E+05      0.7471243436E-01

    ------------------------------------------------
       NWT REQUIRED            4 OUTER ITERATIONS 
       AND A TOTAL OF          8 INNER ITERATIONS.
    ------------------------------------------------

 OUTPUT CONTROL FOR STRESS PERIOD    1   TIME STEP  231
    SAVE HEAD FOR ALL LAYERS
    SAVE DRAWDOWN FOR ALL LAYERS
    SAVE BUDGET
    PRINT BUDGET
 UBDSV1 SAVING "         STORAGE" ON UNIT   9 AT TIME STEP231, STRESS PERIOD   1
 UBDSV2 SAVING "   CONSTANT HEAD" ON UNIT   9 AT TIME STEP231, STRESS PERIOD   1
 UBDSV1 SAVING "FLOW RIGHT FACE " ON UNIT   9 AT TIME STEP231, STRESS PERIOD   1
 UBDSV1 SAVING "FLOW FRONT FACE " ON UNIT   9 AT TIME STEP231, STRESS PERIOD   1
 UBDSV4 SAVING "   RIVER LEAKAGE" ON UNIT   9 AT TIME STEP231, STRESS PERIOD   1
 UBDSV3 SAVING "        RECHARGE" ON UNIT   9 AT TIME STEP231, STRESS PERIOD   1

 HEAD WILL BE SAVED ON UNIT   37 AT END OF TIME STEP  231, STRESS PERIOD    1

 DRAWDOWN WILL BE SAVED ON UNIT   38 AT END OF TIME STEP  231, STRESS PERIOD    1
1
  VOLUMETRIC BUDGET FOR ENTIRE MODEL AT END OF TIME STEP  231, STRESS PERIOD   1
  ------------------------------------------------------------------------------

     CUMULATIVE VOLUMES      L**3       RATES FOR THIS TIME STEP      L**3/T
     ------------------                 ------------------------

           IN:                                      IN:
           ---                                      ---
             STORAGE =   201338304.0000               STORAGE =      794731.6250
       CONSTANT HEAD =           0.0000         CONSTANT HEAD =           0.0000
       RIVER LEAKAGE =   947682816.0000         RIVER LEAKAGE =     9629626.0000
            RECHARGE =      185211.6719              RECHARGE =         443.8042

            TOTAL IN =  1149206272.0000              TOTAL IN =    10424802.0000

          OUT:                                     OUT:
          ----                                     ----
             STORAGE =  1142277632.0000               STORAGE =    10299479.0000
       CONSTANT HEAD =           0.0000         CONSTANT HEAD =           0.0000
       RIVER LEAKAGE =     7166471.0000         RIVER LEAKAGE =      125529.7969
            RECHARGE =           0.0000              RECHARGE =           0.0000

           TOTAL OUT =  1149444096.0000             TOTAL OUT =    10425009.0000

            IN - OUT =     -237824.0000              IN - OUT =        -207.0000

 PERCENT DISCREPANCY =          -0.02     PERCENT DISCREPANCY =          -0.00






         TIME SUMMARY AT END OF TIME STEP  231 IN STRESS PERIOD    1
                    SECONDS     MINUTES      HOURS       DAYS        YEARS
                    -----------------------------------------------------------
   TIME STEP LENGTH  86400.      1440.0      24.000      1.0000     2.73785E-03
 STRESS PERIOD TIME 1.99584E+07 3.32640E+05  5544.0      231.00     0.63244    
         TOTAL TIME 1.99584E+07 3.32640E+05  5544.0      231.00     0.63244    
1
 
 SOLVING FOR HEAD 
                                                   Max.-Head-Change                        Max.-Flux-Residual
  Residual-Control   Outer-Iter.   Inner-Iter.     Column Row Layer    Max.-Head-Change    Column Row Layer    Max.-Flux-Residual            L2-New               L2-Old           Solver-Max-Delh
          0                 1           2            38   71     1       0.6329291759E+00      38   82    1       0.2390837235E+06      0.1105959388E+07      0.3555371770E+02      0.6329291759E+00
          0                 2           2            42   57     1       0.8698117378E+01      15  124    1       0.1059413605E+06      0.1515839168E+06      0.1105959388E+07      0.8698117378E+01
          0                 3           2            42   57     1      -0.7945070405E+01      42   57    1      -0.4827847802E+05      0.4972330219E+05      0.1515839168E+06     -0.7945070405E+01
          0                 4           2            42   57     1      -0.3972856981E+00      42   57    1      -0.2414077277E+04      0.2486308198E+04      0.4972330219E+05     -0.3972856981E+00

    ------------------------------------------------
       NWT REQUIRED            4 OUTER ITERATIONS 
       AND A TOTAL OF          8 INNER ITERATIONS.
    ------------------------------------------------

 OUTPUT CONTROL FOR STRESS PERIOD    1   TIME STEP  232
    SAVE HEAD FOR ALL LAYERS
    SAVE DRAWDOWN FOR ALL LAYERS
    SAVE BUDGET
    PRINT BUDGET
 UBDSV1 SAVING "         STORAGE" ON UNIT   9 AT TIME STEP232, STRESS PERIOD   1
 UBDSV2 SAVING "   CONSTANT HEAD" ON UNIT   9 AT TIME STEP232, STRESS PERIOD   1
 UBDSV1 SAVING "FLOW RIGHT FACE " ON UNIT   9 AT TIME STEP232, STRESS PERIOD   1
 UBDSV1 SAVING "FLOW FRONT FACE " ON UNIT   9 AT TIME STEP232, STRESS PERIOD   1
 UBDSV4 SAVING "   RIVER LEAKAGE" ON UNIT   9 AT TIME STEP232, STRESS PERIOD   1
 UBDSV3 SAVING "        RECHARGE" ON UNIT   9 AT TIME STEP232, STRESS PERIOD   1

 HEAD WILL BE SAVED ON UNIT   37 AT END OF TIME STEP  232, STRESS PERIOD    1

 DRAWDOWN WILL BE SAVED ON UNIT   38 AT END OF TIME STEP  232, STRESS PERIOD    1
1
  VOLUMETRIC BUDGET FOR ENTIRE MODEL AT END OF TIME STEP  232, STRESS PERIOD   1
  ------------------------------------------------------------------------------

     CUMULATIVE VOLUMES      L**3       RATES FOR THIS TIME STEP      L**3/T
     ------------------                 ------------------------

           IN:                                      IN:
           ---                                      ---
             STORAGE =   202134208.0000               STORAGE =      795911.4375
       CONSTANT HEAD =           0.0000         CONSTANT HEAD =           0.0000
       RIVER LEAKAGE =   954391040.0000         RIVER LEAKAGE =     6708209.5000
            RECHARGE =      185645.8750              RECHARGE =         434.2012

            TOTAL IN =  1156710912.0000              TOTAL IN =     7504555.0000

          OUT:                                     OUT:
          ----                                     ----
             STORAGE =  1149650432.0000               STORAGE =     7372805.5000
       CONSTANT HEAD =           0.0000         CONSTANT HEAD =           0.0000
       RIVER LEAKAGE =     7298432.0000         RIVER LEAKAGE =      131960.8125
            RECHARGE =           0.0000              RECHARGE =           0.0000

           TOTAL OUT =  1156948864.0000             TOTAL OUT =     7504766.5000

            IN - OUT =     -237952.0000              IN - OUT =        -211.5000

 PERCENT DISCREPANCY =          -0.02     PERCENT DISCREPANCY =          -0.00






         TIME SUMMARY AT END OF TIME STEP  232 IN STRESS PERIOD    1
                    SECONDS     MINUTES      HOURS       DAYS        YEARS
                    -----------------------------------------------------------
   TIME STEP LENGTH  86400.      1440.0      24.000      1.0000     2.73785E-03
 STRESS PERIOD TIME 2.00448E+07 3.34080E+05  5568.0      232.00     0.63518    
         TOTAL TIME 2.00448E+07 3.34080E+05  5568.0      232.00     0.63518    
1
 
 SOLVING FOR HEAD 
                                                   Max.-Head-Change                        Max.-Flux-Residual
  Residual-Control   Outer-Iter.   Inner-Iter.     Column Row Layer    Max.-Head-Change    Column Row Layer    Max.-Flux-Residual            L2-New               L2-Old           Solver-Max-Delh
          0                 1           2            42   57     1       0.1263568406E+01      38   82    1       0.3554083888E+06      0.1241042000E+07      0.1242960704E+03      0.1263568406E+01
          0                 2           2             8  127     1       0.5181140927E+03       8  127    1       0.7609403276E+05      0.1443458688E+06      0.1241042000E+07      0.5181140927E+03
          1                 2           0             8  127     1       0.3626798587E+03       8  127    1      -0.1192631414E+09      0.1192640881E+09      0.1443458688E+06      0.5181140927E+03
          2                 2           0             8  127     1       0.2538758968E+03       8  127    1      -0.8346031088E+08      0.8346097899E+08      0.1192640881E+09      0.5181140927E+03
          3                 2           0             8  127     1       0.1777131247E+03       8  127    1      -0.5839832994E+08      0.5839882276E+08      0.8346097899E+08      0.5181140927E+03
          4                 2           0             8  127     1       0.1243991852E+03       8  127    1      -0.4085494357E+08      0.4085534194E+08      0.5839882276E+08      0.5181140927E+03
          5                 2           0             8  127     1       0.8707942815E+02       8  127    1      -0.2857457333E+08      0.2857494598E+08      0.4085534194E+08      0.5181140927E+03
          6                 2           0             8  127     1       0.6095559866E+02       8  127    1      -0.1997831430E+08      0.1997872683E+08      0.2857494598E+08      0.5181140927E+03
          7                 2           0             8  127     1       0.4266891834E+02       8  127    1      -0.1396093309E+08      0.1396145652E+08      0.1997872683E+08      0.5181140927E+03
          8                 2           0             8  127     1       0.2986824233E+02       8  127    1      -0.9748766308E+07      0.9749486557E+07      0.1396145652E+08      0.5181140927E+03
                                                   Max.-Head-Change                        Max.-Flux-Residual
  Residual-Control   Outer-Iter.   Inner-Iter.     Column Row Layer    Max.-Head-Change    Column Row Layer    Max.-Flux-Residual            L2-New               L2-Old           Solver-Max-Delh
          9                 2           0             8  127     1       0.2090776927E+02       8  127    1      -0.6800533697E+07      0.6801563214E+07      0.9749486557E+07      0.5181140927E+03
         10                 2           0             8  127     1       0.1463543824E+02       8  127    1      -0.4736942586E+07      0.4738436130E+07      0.6801563214E+07      0.5181140927E+03
         11                 2           0             8  127     1       0.1024480660E+02       8  127    1      -0.3292428836E+07      0.3294606157E+07      0.4738436130E+07      0.5181140927E+03
         12                 2           0             8  127     1       0.7171364494E+01       8  127    1      -0.2281358565E+07      0.2284538072E+07      0.3294606157E+07      0.5181140927E+03
         13                 2           0             8  127     1       0.5019955061E+01       8  127    1      -0.1573749600E+07      0.1578400284E+07      0.2284538072E+07      0.5181140927E+03
         14                 2           0             8  127     1       0.3513968483E+01       8  127    1      -0.1078423335E+07      0.1085249394E+07      0.1578400284E+07      0.5181140927E+03
         15                 2           0             8  127     1       0.2459777896E+01       8  127    1      -0.7316949561E+06      0.7417738058E+06      0.1085249394E+07      0.5181140927E+03
         16                 2           0             8  127     1       0.1721844498E+01       8  127    1      -0.4889850953E+06      0.5039994739E+06      0.7417738058E+06      0.5181140927E+03
         17                 2           0             8  127     1       0.1205291128E+01       8  127    1      -0.3190881959E+06      0.3417125139E+06      0.5039994739E+06      0.5181140927E+03
         18                 2           0             8  127     1       0.8437037752E+00       8  127    1      -0.2001603683E+06      0.2346124670E+06      0.3417125139E+06      0.5181140927E+03
                                                   Max.-Head-Change                        Max.-Flux-Residual
  Residual-Control   Outer-Iter.   Inner-Iter.     Column Row Layer    Max.-Head-Change    Column Row Layer    Max.-Flux-Residual            L2-New               L2-Old           Solver-Max-Delh
         19                 2           0             8  127     1       0.5905926326E+00       8  127    1      -0.1169148490E+06      0.1693161249E+06      0.2346124670E+06      0.5181140927E+03
          0                 3           2            54   29     1       0.4160699081E+01       8  127    1      -0.5864801740E+05      0.1358396796E+06      0.1693161249E+06      0.4160699081E+01
          1                 3           0            54   29     1       0.2912489307E+01      49   35    1      -0.3724255682E+06      0.4738229376E+06      0.1358396796E+06      0.4160699081E+01
          2                 3           0            54   29     1       0.2038742480E+01      49   35    1      -0.2602111676E+06      0.3338656368E+06      0.4738229376E+06      0.4160699081E+01
          3                 3           0            54   29     1       0.1427119712E+01      49   35    1      -0.1816610885E+06      0.2417919546E+06      0.3338656368E+06      0.4160699081E+01
          4                 3           0            54   29     1       0.9989837813E+00      49   35    1      -0.1266760341E+06      0.1848330519E+06      0.2417919546E+06      0.4160699081E+01
          5                 3           0            54   29     1       0.6992886350E+00      49   35    1      -0.8818649662E+05      0.1530560247E+06      0.1848330519E+06      0.4160699081E+01
          0                 4           2            54   29     1      -0.5204928583E+00      49   35    1      -0.6124382087E+05      0.1377821357E+06      0.1530560247E+06     -0.5204928583E+00
          0                 5           2            50   38     1      -0.7655989735E-01      49   35    1      -0.1087025510E+05      0.1481029600E+05      0.1377821357E+06     -0.7655989735E-01
          0                 6           2            28   67     1       0.7423586413E-01      49   35    1      -0.1929268726E+04      0.2441978034E+04      0.1481029600E+05      0.7423586413E-01

    ------------------------------------------------
       NWT REQUIRED            6 OUTER ITERATIONS 
       AND A TOTAL OF         12 INNER ITERATIONS.
    ------------------------------------------------

 OUTPUT CONTROL FOR STRESS PERIOD    1   TIME STEP  233
    SAVE HEAD FOR ALL LAYERS
    SAVE DRAWDOWN FOR ALL LAYERS
    SAVE BUDGET
    PRINT BUDGET
 UBDSV1 SAVING "         STORAGE" ON UNIT   9 AT TIME STEP233, STRESS PERIOD   1
 UBDSV2 SAVING "   CONSTANT HEAD" ON UNIT   9 AT TIME STEP233, STRESS PERIOD   1
 UBDSV1 SAVING "FLOW RIGHT FACE " ON UNIT   9 AT TIME STEP233, STRESS PERIOD   1
 UBDSV1 SAVING "FLOW FRONT FACE " ON UNIT   9 AT TIME STEP233, STRESS PERIOD   1
 UBDSV4 SAVING "   RIVER LEAKAGE" ON UNIT   9 AT TIME STEP233, STRESS PERIOD   1
 UBDSV3 SAVING "        RECHARGE" ON UNIT   9 AT TIME STEP233, STRESS PERIOD   1

 HEAD WILL BE SAVED ON UNIT   37 AT END OF TIME STEP  233, STRESS PERIOD    1

 DRAWDOWN WILL BE SAVED ON UNIT   38 AT END OF TIME STEP  233, STRESS PERIOD    1
1
  VOLUMETRIC BUDGET FOR ENTIRE MODEL AT END OF TIME STEP  233, STRESS PERIOD   1
  ------------------------------------------------------------------------------

     CUMULATIVE VOLUMES      L**3       RATES FOR THIS TIME STEP      L**3/T
     ------------------                 ------------------------

           IN:                                      IN:
           ---                                      ---
             STORAGE =   202927712.0000               STORAGE =      793498.3125
       CONSTANT HEAD =           0.0000         CONSTANT HEAD =           0.0000
       RIVER LEAKAGE =   962780224.0000         RIVER LEAKAGE =     8389168.0000
            RECHARGE =      186065.1875              RECHARGE =         419.3145

            TOTAL IN =  1165894016.0000              TOTAL IN =     9183085.0000

          OUT:                                     OUT:
          ----                                     ----
             STORAGE =  1158703616.0000               STORAGE =     9053155.0000
       CONSTANT HEAD =           0.0000         CONSTANT HEAD =           0.0000
       RIVER LEAKAGE =     7429073.0000         RIVER LEAKAGE =      130641.0000
            RECHARGE =           0.0000              RECHARGE =           0.0000

           TOTAL OUT =  1166132736.0000             TOTAL OUT =     9183796.0000

            IN - OUT =     -238720.0000              IN - OUT =        -711.0000

 PERCENT DISCREPANCY =          -0.02     PERCENT DISCREPANCY =          -0.01






         TIME SUMMARY AT END OF TIME STEP  233 IN STRESS PERIOD    1
                    SECONDS     MINUTES      HOURS       DAYS        YEARS
                    -----------------------------------------------------------
   TIME STEP LENGTH  86400.      1440.0      24.000      1.0000     2.73785E-03
 STRESS PERIOD TIME 2.01312E+07 3.35520E+05  5592.0      233.00     0.63792    
         TOTAL TIME 2.01312E+07 3.35520E+05  5592.0      233.00     0.63792    
1
 
 SOLVING FOR HEAD 
                                                   Max.-Head-Change                        Max.-Flux-Residual
  Residual-Control   Outer-Iter.   Inner-Iter.     Column Row Layer    Max.-Head-Change    Column Row Layer    Max.-Flux-Residual            L2-New               L2-Old           Solver-Max-Delh
          0                 1           2            54   29     1       0.8282094155E+00      38   82    1       0.2145681469E+06      0.9368029562E+06      0.4306490669E+03      0.8282094155E+00
          0                 2           2            28   67     1       0.7428748210E-01      38   82    1      -0.2145749823E+05      0.9368036616E+05      0.9368029562E+06      0.7428748210E-01
          0                 3           2            28   67     1       0.7414622524E-01      38   82    1      -0.1072879464E+04      0.4684028175E+04      0.9368036616E+05      0.7414622524E-01

    ------------------------------------------------
       NWT REQUIRED            3 OUTER ITERATIONS 
       AND A TOTAL OF          6 INNER ITERATIONS.
    ------------------------------------------------

 OUTPUT CONTROL FOR STRESS PERIOD    1   TIME STEP  234
    SAVE HEAD FOR ALL LAYERS
    SAVE DRAWDOWN FOR ALL LAYERS
    SAVE BUDGET
    PRINT BUDGET
 UBDSV1 SAVING "         STORAGE" ON UNIT   9 AT TIME STEP234, STRESS PERIOD   1
 UBDSV2 SAVING "   CONSTANT HEAD" ON UNIT   9 AT TIME STEP234, STRESS PERIOD   1
 UBDSV1 SAVING "FLOW RIGHT FACE " ON UNIT   9 AT TIME STEP234, STRESS PERIOD   1
 UBDSV1 SAVING "FLOW FRONT FACE " ON UNIT   9 AT TIME STEP234, STRESS PERIOD   1
 UBDSV4 SAVING "   RIVER LEAKAGE" ON UNIT   9 AT TIME STEP234, STRESS PERIOD   1
 UBDSV3 SAVING "        RECHARGE" ON UNIT   9 AT TIME STEP234, STRESS PERIOD   1

 HEAD WILL BE SAVED ON UNIT   37 AT END OF TIME STEP  234, STRESS PERIOD    1

 DRAWDOWN WILL BE SAVED ON UNIT   38 AT END OF TIME STEP  234, STRESS PERIOD    1
1
  VOLUMETRIC BUDGET FOR ENTIRE MODEL AT END OF TIME STEP  234, STRESS PERIOD   1
  ------------------------------------------------------------------------------

     CUMULATIVE VOLUMES      L**3       RATES FOR THIS TIME STEP      L**3/T
     ------------------                 ------------------------

           IN:                                      IN:
           ---                                      ---
             STORAGE =   203723440.0000               STORAGE =      795722.5000
       CONSTANT HEAD =           0.0000         CONSTANT HEAD =           0.0000
       RIVER LEAKAGE =   968452480.0000         RIVER LEAKAGE =     5672273.5000
            RECHARGE =      186464.0938              RECHARGE =         398.9027

            TOTAL IN =  1172362368.0000              TOTAL IN =     6468395.0000

          OUT:                                     OUT:
          ----                                     ----
             STORAGE =  1165037312.0000               STORAGE =     6333705.5000
       CONSTANT HEAD =           0.0000         CONSTANT HEAD =           0.0000
       RIVER LEAKAGE =     7564362.5000         RIVER LEAKAGE =      135289.6094
            RECHARGE =           0.0000              RECHARGE =           0.0000

           TOTAL OUT =  1172601728.0000             TOTAL OUT =     6468995.0000

            IN - OUT =     -239360.0000              IN - OUT =        -600.0000

 PERCENT DISCREPANCY =          -0.02     PERCENT DISCREPANCY =          -0.01






         TIME SUMMARY AT END OF TIME STEP  234 IN STRESS PERIOD    1
                    SECONDS     MINUTES      HOURS       DAYS        YEARS
                    -----------------------------------------------------------
   TIME STEP LENGTH  86400.      1440.0      24.000      1.0000     2.73785E-03
 STRESS PERIOD TIME 2.02176E+07 3.36960E+05  5616.0      234.00     0.64066    
         TOTAL TIME 2.02176E+07 3.36960E+05  5616.0      234.00     0.64066    
1
 
 SOLVING FOR HEAD 
                                                   Max.-Head-Change                        Max.-Flux-Residual
  Residual-Control   Outer-Iter.   Inner-Iter.     Column Row Layer    Max.-Head-Change    Column Row Layer    Max.-Flux-Residual            L2-New               L2-Old           Solver-Max-Delh
          0                 1           2            38   71     1      -0.5546502996E+00      26  115    1      -0.1626895082E+06      0.7247197679E+06      0.2341575548E+03     -0.5546502996E+00
          0                 2           2            34  100     1       0.1747584393E+03      34  100    1       0.5132628132E+05      0.8837895057E+05      0.7247197679E+06      0.1747584393E+03
          1                 2           0            34  100     1       0.1223309055E+03      34  100    1      -0.3098205110E+08      0.3098205173E+08      0.8837895057E+05      0.1747584393E+03
          2                 2           0            34  100     1       0.8563163236E+02      34  100    1      -0.2166866885E+08      0.2166868252E+08      0.3098205173E+08      0.1747584393E+03
          3                 2           0            34  100     1       0.5994214163E+02      34  100    1      -0.1514930139E+08      0.1514935043E+08      0.2166868252E+08      0.1747584393E+03
          4                 2           0            34  100     1       0.4195949843E+02      34  100    1      -0.1058694056E+08      0.1058705196E+08      0.1514935043E+08      0.1747584393E+03
          5                 2           0            34  100     1       0.2937164840E+02      34  100    1      -0.7393330460E+07      0.7393539366E+07      0.1058705196E+08      0.1747584393E+03
          6                 2           0            34  100     1       0.2056015353E+02      34  100    1      -0.5157802871E+07      0.5158157564E+07      0.7393539366E+07      0.1747584393E+03
          7                 2           0            34  100     1       0.1439210723E+02      34  100    1      -0.3592933598E+07      0.3593502258E+07      0.5158157564E+07      0.1747584393E+03
          8                 2           0            34  100     1       0.1007447489E+02      34  100    1      -0.2497525130E+07      0.2498405861E+07      0.3593502258E+07      0.1747584393E+03
                                                   Max.-Head-Change                        Max.-Flux-Residual
  Residual-Control   Outer-Iter.   Inner-Iter.     Column Row Layer    Max.-Head-Change    Column Row Layer    Max.-Flux-Residual            L2-New               L2-Old           Solver-Max-Delh
          9                 2           0            34  100     1       0.7052132300E+01      34  100    1      -0.1730739219E+07      0.1732075231E+07      0.2498405861E+07      0.1747584393E+03
         10                 2           0            34  100     1       0.4936492526E+01      34  100    1      -0.1193989092E+07      0.1195992514E+07      0.1732075231E+07      0.1747584393E+03
         11                 2           0            34  100     1       0.3455544709E+01      34  100    1      -0.8182640095E+06      0.8212545491E+06      0.1195992514E+07      0.1747584393E+03
         12                 2           0            34  100     1       0.2418881255E+01      34  100    1      -0.5552564569E+06      0.5597267376E+06      0.8212545491E+06      0.1747584393E+03
         13                 2           0            34  100     1       0.1693216850E+01      34  100    1      -0.3711511733E+06      0.3778819242E+06      0.5597267376E+06      0.1747584393E+03
         14                 2           0            34  100     1       0.1185251775E+01      34  100    1      -0.2422774771E+06      0.2525474470E+06      0.3778819242E+06      0.1747584393E+03
         15                 2           0            34  100     1       0.8296762282E+00      34  100    1      -0.1520658913E+06      0.1680302506E+06      0.2525474470E+06      0.1747584393E+03
         16                 2           0            34  100     1       0.5807733499E+00      34  100    1      -0.8891778230E+05      0.1141768518E+06      0.1680302506E+06      0.1747584393E+03
          0                 3           2            34  100     1      -0.2391821005E+00      34  100    1      -0.4471410680E+05      0.8451776084E+05      0.1141768518E+06     -0.2391821005E+00
          0                 4           2            28   67     1       0.7405258492E-01      34  100    1      -0.2235704002E+04      0.4225282020E+04      0.8451776084E+05      0.7405258492E-01

    ------------------------------------------------
       NWT REQUIRED            4 OUTER ITERATIONS 
       AND A TOTAL OF          8 INNER ITERATIONS.
    ------------------------------------------------

 OUTPUT CONTROL FOR STRESS PERIOD    1   TIME STEP  235
    SAVE HEAD FOR ALL LAYERS
    SAVE DRAWDOWN FOR ALL LAYERS
    SAVE BUDGET
    PRINT BUDGET
 UBDSV1 SAVING "         STORAGE" ON UNIT   9 AT TIME STEP235, STRESS PERIOD   1
 UBDSV2 SAVING "   CONSTANT HEAD" ON UNIT   9 AT TIME STEP235, STRESS PERIOD   1
 UBDSV1 SAVING "FLOW RIGHT FACE " ON UNIT   9 AT TIME STEP235, STRESS PERIOD   1
 UBDSV1 SAVING "FLOW FRONT FACE " ON UNIT   9 AT TIME STEP235, STRESS PERIOD   1
 UBDSV4 SAVING "   RIVER LEAKAGE" ON UNIT   9 AT TIME STEP235, STRESS PERIOD   1
 UBDSV3 SAVING "        RECHARGE" ON UNIT   9 AT TIME STEP235, STRESS PERIOD   1

 HEAD WILL BE SAVED ON UNIT   37 AT END OF TIME STEP  235, STRESS PERIOD    1

 DRAWDOWN WILL BE SAVED ON UNIT   38 AT END OF TIME STEP  235, STRESS PERIOD    1
1
  VOLUMETRIC BUDGET FOR ENTIRE MODEL AT END OF TIME STEP  235, STRESS PERIOD   1
  ------------------------------------------------------------------------------

     CUMULATIVE VOLUMES      L**3       RATES FOR THIS TIME STEP      L**3/T
     ------------------                 ------------------------

           IN:                                      IN:
           ---                                      ---
             STORAGE =   204520160.0000               STORAGE =      796721.0625
       CONSTANT HEAD =           0.0000         CONSTANT HEAD =           0.0000
       RIVER LEAKAGE =   972601472.0000         RIVER LEAKAGE =     4148991.7500
            RECHARGE =      186839.8125              RECHARGE =         375.7176

            TOTAL IN =  1177308416.0000              TOTAL IN =     4946088.5000

          OUT:                                     OUT:
          ----                                     ----
             STORAGE =  1169845504.0000               STORAGE =     4808211.5000
       CONSTANT HEAD =           0.0000         CONSTANT HEAD =           0.0000
       RIVER LEAKAGE =     7702500.5000         RIVER LEAKAGE =      138138.0938
            RECHARGE =           0.0000              RECHARGE =           0.0000

           TOTAL OUT =  1177548032.0000             TOTAL OUT =     4946349.5000

            IN - OUT =     -239616.0000              IN - OUT =        -261.0000

 PERCENT DISCREPANCY =          -0.02     PERCENT DISCREPANCY =          -0.01






         TIME SUMMARY AT END OF TIME STEP  235 IN STRESS PERIOD    1
                    SECONDS     MINUTES      HOURS       DAYS        YEARS
                    -----------------------------------------------------------
   TIME STEP LENGTH  86400.      1440.0      24.000      1.0000     2.73785E-03
 STRESS PERIOD TIME 2.03040E+07 3.38400E+05  5640.0      235.00     0.64339    
         TOTAL TIME 2.03040E+07 3.38400E+05  5640.0      235.00     0.64339    
1
 
 SOLVING FOR HEAD 
                                                   Max.-Head-Change                        Max.-Flux-Residual
  Residual-Control   Outer-Iter.   Inner-Iter.     Column Row Layer    Max.-Head-Change    Column Row Layer    Max.-Flux-Residual            L2-New               L2-Old           Solver-Max-Delh
          0                 1           2            34  100     1       0.6579035013E+00      26  115    1       0.2568946599E+06      0.1117519593E+07      0.2111947315E+03      0.6579035013E+00
          0                 2           2            28  115     1       0.1740533436E+03      34   88    1       0.1386658573E+06      0.1827346777E+06      0.1117519593E+07      0.1740533436E+03
          1                 2           0            28  115     1       0.1218373384E+03      18  123    1      -0.1169625578E+08      0.1490855065E+08      0.1827346777E+06      0.1740533436E+03
          2                 2           0            28  115     1       0.8528613544E+02      18  123    1      -0.8175294038E+07      0.1041867455E+08      0.1490855065E+08      0.1740533436E+03
          3                 2           0            28  115     1       0.5970029379E+02      18  123    1      -0.5710620862E+07      0.7276090082E+07      0.1041867455E+08      0.1740533436E+03
          4                 2           0            28  115     1       0.4179020494E+02      18  123    1      -0.3985349668E+07      0.5076754063E+07      0.7276090082E+07      0.1740533436E+03
          5                 2           0            28  115     1       0.2925314296E+02      18  123    1      -0.2777723136E+07      0.3537951242E+07      0.5076754063E+07      0.1740533436E+03
          6                 2           0            28  115     1       0.2047719972E+02      18  123    1      -0.1932642967E+07      0.2461996432E+07      0.3537951242E+07      0.1740533436E+03
          7                 2           0            28  115     1       0.1433403956E+02      18  123    1      -0.1341086862E+07      0.1710319731E+07      0.2461996432E+07      0.1740533436E+03
          8                 2           0            28  115     1       0.1003382752E+02      18  123    1      -0.9269975977E+06      0.1186252062E+07      0.1710319731E+07      0.1740533436E+03
                                                   Max.-Head-Change                        Max.-Flux-Residual
  Residual-Control   Outer-Iter.   Inner-Iter.     Column Row Layer    Max.-Head-Change    Column Row Layer    Max.-Flux-Residual            L2-New               L2-Old           Solver-Max-Delh
          9                 2           0            28  115     1       0.7023679147E+01      18  123    1      -0.6371351184E+06      0.8224928743E+06      0.1186252062E+07      0.1740533436E+03
         10                 2           0            28  115     1       0.4916575319E+01      18  123    1      -0.4342963794E+06      0.5724441099E+06      0.8224928743E+06      0.1740533436E+03
         11                 2           0            28  115     1       0.3441602665E+01      18  123    1      -0.2923114137E+06      0.4039675431E+06      0.5724441099E+06      0.1740533436E+03
         12                 2           0            28  115     1       0.2409121824E+01      18  123    1      -0.1929219395E+06      0.2950756833E+06      0.4039675431E+06      0.1740533436E+03
         13                 2           0            28  115     1       0.1686385248E+01      34   88    1       0.1365546156E+06      0.2300240641E+06      0.2950756833E+06      0.1740533436E+03
          0                 3           2            34   88     1       0.8822987617E+00      34   88    1       0.1371879882E+06      0.1958866033E+06      0.2300240641E+06      0.8822987617E+00
          0                 4           2            34   88     1      -0.7619825558E-01      34   88    1      -0.1371851615E+05      0.1539665642E+05      0.1958866033E+06     -0.7619825558E-01
          0                 5           2            28   67     1       0.7381323216E-01      34   88    1      -0.6859256821E+03      0.7697828777E+03      0.1539665642E+05      0.7381323216E-01

    ------------------------------------------------
       NWT REQUIRED            5 OUTER ITERATIONS 
       AND A TOTAL OF         10 INNER ITERATIONS.
    ------------------------------------------------

 OUTPUT CONTROL FOR STRESS PERIOD    1   TIME STEP  236
    SAVE HEAD FOR ALL LAYERS
    SAVE DRAWDOWN FOR ALL LAYERS
    SAVE BUDGET
    PRINT BUDGET
 UBDSV1 SAVING "         STORAGE" ON UNIT   9 AT TIME STEP236, STRESS PERIOD   1
 UBDSV2 SAVING "   CONSTANT HEAD" ON UNIT   9 AT TIME STEP236, STRESS PERIOD   1
 UBDSV1 SAVING "FLOW RIGHT FACE " ON UNIT   9 AT TIME STEP236, STRESS PERIOD   1
 UBDSV1 SAVING "FLOW FRONT FACE " ON UNIT   9 AT TIME STEP236, STRESS PERIOD   1
 UBDSV4 SAVING "   RIVER LEAKAGE" ON UNIT   9 AT TIME STEP236, STRESS PERIOD   1
 UBDSV3 SAVING "        RECHARGE" ON UNIT   9 AT TIME STEP236, STRESS PERIOD   1

 HEAD WILL BE SAVED ON UNIT   37 AT END OF TIME STEP  236, STRESS PERIOD    1

 DRAWDOWN WILL BE SAVED ON UNIT   38 AT END OF TIME STEP  236, STRESS PERIOD    1
1
  VOLUMETRIC BUDGET FOR ENTIRE MODEL AT END OF TIME STEP  236, STRESS PERIOD   1
  ------------------------------------------------------------------------------

     CUMULATIVE VOLUMES      L**3       RATES FOR THIS TIME STEP      L**3/T
     ------------------                 ------------------------

           IN:                                      IN:
           ---                                      ---
             STORAGE =   205311680.0000               STORAGE =      791516.0625
       CONSTANT HEAD =           0.0000         CONSTANT HEAD =           0.0000
       RIVER LEAKAGE =   978759424.0000         RIVER LEAKAGE =     6157984.0000
            RECHARGE =      187191.4844              RECHARGE =         351.6655

            TOTAL IN =  1184258304.0000              TOTAL IN =     6949851.5000

          OUT:                                     OUT:
          ----                                     ----
             STORAGE =  1176665600.0000               STORAGE =     6820062.5000
       CONSTANT HEAD =           0.0000         CONSTANT HEAD =           0.0000
       RIVER LEAKAGE =     7832474.0000         RIVER LEAKAGE =      129973.5859
            RECHARGE =           0.0000              RECHARGE =           0.0000

           TOTAL OUT =  1184498048.0000             TOTAL OUT =     6950036.0000

            IN - OUT =     -239744.0000              IN - OUT =        -184.5000

 PERCENT DISCREPANCY =          -0.02     PERCENT DISCREPANCY =          -0.00






         TIME SUMMARY AT END OF TIME STEP  236 IN STRESS PERIOD    1
                    SECONDS     MINUTES      HOURS       DAYS        YEARS
                    -----------------------------------------------------------
   TIME STEP LENGTH  86400.      1440.0      24.000      1.0000     2.73785E-03
 STRESS PERIOD TIME 2.03904E+07 3.39840E+05  5664.0      236.00     0.64613    
         TOTAL TIME 2.03904E+07 3.39840E+05  5664.0      236.00     0.64613    
1
 
 SOLVING FOR HEAD 
                                                   Max.-Head-Change                        Max.-Flux-Residual
  Residual-Control   Outer-Iter.   Inner-Iter.     Column Row Layer    Max.-Head-Change    Column Row Layer    Max.-Flux-Residual            L2-New               L2-Old           Solver-Max-Delh
          0                 1           2            38   71     1      -0.5384699297E+00      26  115    1      -0.2371211014E+06      0.8471369561E+06      0.3849746435E+02     -0.5384699297E+00
          0                 2           2            28   67     1       0.7385712631E-01      26  115    1       0.2371216185E+05      0.8471355127E+05      0.8471369561E+06      0.7385712631E-01
          0                 3           2            28   67     1       0.7371489839E-01      26  115    1       0.1185607874E+04      0.4235681548E+04      0.8471355127E+05      0.7371489839E-01

    ------------------------------------------------
       NWT REQUIRED            3 OUTER ITERATIONS 
       AND A TOTAL OF          6 INNER ITERATIONS.
    ------------------------------------------------

 OUTPUT CONTROL FOR STRESS PERIOD    1   TIME STEP  237
    SAVE HEAD FOR ALL LAYERS
    SAVE DRAWDOWN FOR ALL LAYERS
    SAVE BUDGET
    PRINT BUDGET
 UBDSV1 SAVING "         STORAGE" ON UNIT   9 AT TIME STEP237, STRESS PERIOD   1
 UBDSV2 SAVING "   CONSTANT HEAD" ON UNIT   9 AT TIME STEP237, STRESS PERIOD   1
 UBDSV1 SAVING "FLOW RIGHT FACE " ON UNIT   9 AT TIME STEP237, STRESS PERIOD   1
 UBDSV1 SAVING "FLOW FRONT FACE " ON UNIT   9 AT TIME STEP237, STRESS PERIOD   1
 UBDSV4 SAVING "   RIVER LEAKAGE" ON UNIT   9 AT TIME STEP237, STRESS PERIOD   1
 UBDSV3 SAVING "        RECHARGE" ON UNIT   9 AT TIME STEP237, STRESS PERIOD   1

 HEAD WILL BE SAVED ON UNIT   37 AT END OF TIME STEP  237, STRESS PERIOD    1

 DRAWDOWN WILL BE SAVED ON UNIT   38 AT END OF TIME STEP  237, STRESS PERIOD    1
1
  VOLUMETRIC BUDGET FOR ENTIRE MODEL AT END OF TIME STEP  237, STRESS PERIOD   1
  ------------------------------------------------------------------------------

     CUMULATIVE VOLUMES      L**3       RATES FOR THIS TIME STEP      L**3/T
     ------------------                 ------------------------

           IN:                                      IN:
           ---                                      ---
             STORAGE =   206108720.0000               STORAGE =      797036.6875
       CONSTANT HEAD =           0.0000         CONSTANT HEAD =           0.0000
       RIVER LEAKAGE =   982836096.0000         RIVER LEAKAGE =     4076659.0000
            RECHARGE =      187518.0781              RECHARGE =         326.5971

            TOTAL IN =  1189132288.0000              TOTAL IN =     4874022.0000

          OUT:                                     OUT:
          ----                                     ----
             STORAGE =  1181399552.0000               STORAGE =     4733945.5000
       CONSTANT HEAD =           0.0000         CONSTANT HEAD =           0.0000
       RIVER LEAKAGE =     7972361.5000         RIVER LEAKAGE =      139887.4375
            RECHARGE =           0.0000              RECHARGE =           0.0000

           TOTAL OUT =  1189371904.0000             TOTAL OUT =     4873833.0000

            IN - OUT =     -239616.0000              IN - OUT =         189.0000

 PERCENT DISCREPANCY =          -0.02     PERCENT DISCREPANCY =           0.00






         TIME SUMMARY AT END OF TIME STEP  237 IN STRESS PERIOD    1
                    SECONDS     MINUTES      HOURS       DAYS        YEARS
                    -----------------------------------------------------------
   TIME STEP LENGTH  86400.      1440.0      24.000      1.0000     2.73785E-03
 STRESS PERIOD TIME 2.04768E+07 3.41280E+05  5688.0      237.00     0.64887    
         TOTAL TIME 2.04768E+07 3.41280E+05  5688.0      237.00     0.64887    
1
 
 SOLVING FOR HEAD 
                                                   Max.-Head-Change                        Max.-Flux-Residual
  Residual-Control   Outer-Iter.   Inner-Iter.     Column Row Layer    Max.-Head-Change    Column Row Layer    Max.-Flux-Residual            L2-New               L2-Old           Solver-Max-Delh
          0                 1           2            54   48     1       0.3568189109E+00      38   82    1       0.1772064228E+06      0.6044266293E+06      0.2117449826E+03      0.3568189109E+00
          0                 2           2            17  123     1       0.6475766224E+02      17  123    1       0.3683287417E+05      0.6965957973E+05      0.6044266293E+06      0.6475766224E+02
          1                 2           0            17  123     1       0.4533036280E+02      17  123    1      -0.1520633538E+08      0.1520633820E+08      0.6965957973E+05      0.6475766224E+02
          2                 2           0            17  123     1       0.3173125342E+02      17  123    1      -0.1062943436E+08      0.1062945436E+08      0.1520633820E+08      0.6475766224E+02
          3                 2           0            17  123     1       0.2221187702E+02      17  123    1      -0.7425603700E+07      0.7425671806E+07      0.1062945436E+08      0.6475766224E+02
          4                 2           0            17  123     1       0.1554831365E+02      17  123    1      -0.5182922278E+07      0.5183075935E+07      0.7425671806E+07      0.6475766224E+02
          5                 2           0            17  123     1       0.1088381937E+02      17  123    1      -0.3613045310E+07      0.3613333629E+07      0.5183075935E+07      0.6475766224E+02
          6                 2           0            17  123     1       0.7618673427E+01      17  123    1      -0.2514131450E+07      0.2514622237E+07      0.3613333629E+07      0.6475766224E+02
          7                 2           0            17  123     1       0.5333071308E+01      17  123    1      -0.1744891762E+07      0.1745681698E+07      0.2514622237E+07      0.6475766224E+02
          8                 2           0            17  123     1       0.3733149852E+01      17  123    1      -0.1206476579E+07      0.1207706671E+07      0.1745681698E+07      0.6475766224E+02
                                                   Max.-Head-Change                        Max.-Flux-Residual
  Residual-Control   Outer-Iter.   Inner-Iter.     Column Row Layer    Max.-Head-Change    Column Row Layer    Max.-Flux-Residual            L2-New               L2-Old           Solver-Max-Delh
          9                 2           0            17  123     1       0.2613204852E+01      17  123    1      -0.8299068068E+06      0.8317862173E+06      0.1207706671E+07      0.6475766224E+02
         10                 2           0            17  123     1       0.1829243365E+01      17  123    1      -0.5663079722E+06      0.5691549471E+06      0.8317862173E+06      0.6475766224E+02
         11                 2           0            17  123     1       0.1280470334E+01      17  123    1      -0.3817887917E+06      0.3860999652E+06      0.5691549471E+06      0.6475766224E+02
         12                 2           0            17  123     1       0.8963292184E+00      17  123    1      -0.2526253678E+06      0.2592009581E+06      0.3860999652E+06      0.6475766224E+02
         13                 2           0            17  123     1       0.6274304422E+00      17  123    1      -0.1622109728E+06      0.1723855306E+06      0.2592009581E+06      0.6475766224E+02
         14                 2           0            17  123     1       0.4392013021E+00      17  123    1      -0.9892089737E+05      0.1149652803E+06      0.1723855306E+06      0.6475766224E+02
         15                 2           0            17  123     1       0.3074409062E+00      17  123    1      -0.5461784538E+05      0.8021194324E+05      0.1149652803E+06      0.6475766224E+02
          0                 3           2            17  123     1      -0.9528310214E-01      17  123    1      -0.2360570953E+05      0.6341553965E+05      0.8021194324E+05     -0.9528310214E-01
          0                 4           2            28   67     1       0.7361252752E-01      17  123    1      -0.1180284921E+04      0.3170238447E+04      0.6341553965E+05      0.7361252752E-01

    ------------------------------------------------
       NWT REQUIRED            4 OUTER ITERATIONS 
       AND A TOTAL OF          8 INNER ITERATIONS.
    ------------------------------------------------

 OUTPUT CONTROL FOR STRESS PERIOD    1   TIME STEP  238
    SAVE HEAD FOR ALL LAYERS
    SAVE DRAWDOWN FOR ALL LAYERS
    SAVE BUDGET
    PRINT BUDGET
 UBDSV1 SAVING "         STORAGE" ON UNIT   9 AT TIME STEP238, STRESS PERIOD   1
 UBDSV2 SAVING "   CONSTANT HEAD" ON UNIT   9 AT TIME STEP238, STRESS PERIOD   1
 UBDSV1 SAVING "FLOW RIGHT FACE " ON UNIT   9 AT TIME STEP238, STRESS PERIOD   1
 UBDSV1 SAVING "FLOW FRONT FACE " ON UNIT   9 AT TIME STEP238, STRESS PERIOD   1
 UBDSV4 SAVING "   RIVER LEAKAGE" ON UNIT   9 AT TIME STEP238, STRESS PERIOD   1
 UBDSV3 SAVING "        RECHARGE" ON UNIT   9 AT TIME STEP238, STRESS PERIOD   1

 HEAD WILL BE SAVED ON UNIT   37 AT END OF TIME STEP  238, STRESS PERIOD    1

 DRAWDOWN WILL BE SAVED ON UNIT   38 AT END OF TIME STEP  238, STRESS PERIOD    1
1
  VOLUMETRIC BUDGET FOR ENTIRE MODEL AT END OF TIME STEP  238, STRESS PERIOD   1
  ------------------------------------------------------------------------------

     CUMULATIVE VOLUMES      L**3       RATES FOR THIS TIME STEP      L**3/T
     ------------------                 ------------------------

           IN:                                      IN:
           ---                                      ---
             STORAGE =   206899760.0000               STORAGE =      791037.6875
       CONSTANT HEAD =           0.0000         CONSTANT HEAD =           0.0000
       RIVER LEAKAGE =   987177536.0000         RIVER LEAKAGE =     4341409.0000
            RECHARGE =      187819.9219              RECHARGE =         301.8369

            TOTAL IN =  1194265088.0000              TOTAL IN =     5132748.5000

          OUT:                                     OUT:
          ----                                     ----
             STORAGE =  1186398336.0000               STORAGE =     4998749.0000
       CONSTANT HEAD =           0.0000         CONSTANT HEAD =           0.0000
       RIVER LEAKAGE =     8107662.5000         RIVER LEAKAGE =      135301.0625
            RECHARGE =           0.0000              RECHARGE =           0.0000

           TOTAL OUT =  1194505984.0000             TOTAL OUT =     5134050.0000

            IN - OUT =     -240896.0000              IN - OUT =       -1301.5000

 PERCENT DISCREPANCY =          -0.02     PERCENT DISCREPANCY =          -0.03






         TIME SUMMARY AT END OF TIME STEP  238 IN STRESS PERIOD    1
                    SECONDS     MINUTES      HOURS       DAYS        YEARS
                    -----------------------------------------------------------
   TIME STEP LENGTH  86400.      1440.0      24.000      1.0000     2.73785E-03
 STRESS PERIOD TIME 2.05632E+07 3.42720E+05  5712.0      238.00     0.65161    
         TOTAL TIME 2.05632E+07 3.42720E+05  5712.0      238.00     0.65161    
1
 
 SOLVING FOR HEAD 
                                                   Max.-Head-Change                        Max.-Flux-Residual
  Residual-Control   Outer-Iter.   Inner-Iter.     Column Row Layer    Max.-Head-Change    Column Row Layer    Max.-Flux-Residual            L2-New               L2-Old           Solver-Max-Delh
          0                 1           2            17  123     1       0.3695954921E+00      38   82    1       0.1641517025E+06      0.5554042494E+06      0.1584574983E+03      0.3695954921E+00
          0                 2           2            34   95     1       0.1602331876E+03      34   95    1       0.5350526825E+05      0.7656443180E+05      0.5554042494E+06      0.1602331876E+03
          1                 2           0            34   95     1       0.1121632294E+03      34   95    1      -0.2283661924E+08      0.2283662344E+08      0.7656443180E+05      0.1602331876E+03
          2                 2           0            34   95     1       0.7851425923E+02      34   95    1      -0.1596635987E+08      0.1596637225E+08      0.2283662344E+08      0.1602331876E+03
          3                 2           0            34   95     1       0.5495998052E+02      34   95    1      -0.1115717840E+08      0.1115721719E+08      0.1596637225E+08      0.1602331876E+03
          4                 2           0            34   95     1       0.3847198571E+02      34   95    1      -0.7790751419E+07      0.7790838439E+07      0.1115721719E+08      0.1602331876E+03
          5                 2           0            34   95     1       0.2693038954E+02      34   95    1      -0.5435219288E+07      0.5435382797E+07      0.7790838439E+07      0.1602331876E+03
          6                 2           0            34   95     1       0.1885127236E+02      34   95    1      -0.3786433292E+07      0.3786711871E+07      0.5435382797E+07      0.1602331876E+03
          7                 2           0            34   95     1       0.1319589042E+02      34   95    1      -0.2632701995E+07      0.2633150233E+07      0.3786711871E+07      0.1602331876E+03
          8                 2           0            34   95     1       0.9237123140E+01      34   95    1      -0.1825218696E+07      0.1825915548E+07      0.2633150233E+07      0.1602331876E+03
                                                   Max.-Head-Change                        Max.-Flux-Residual
  Residual-Control   Outer-Iter.   Inner-Iter.     Column Row Layer    Max.-Head-Change    Column Row Layer    Max.-Flux-Residual            L2-New               L2-Old           Solver-Max-Delh
          9                 2           0            34   95     1       0.6465986088E+01      34   95    1      -0.1259980403E+07      0.1261042355E+07      0.1825915548E+07      0.1602331876E+03
         10                 2           0            34   95     1       0.4526190184E+01      34   95    1      -0.8643136071E+06      0.8659158629E+06      0.1261042355E+07      0.1602331876E+03
         11                 2           0            34   95     1       0.3168333075E+01      34   95    1      -0.5873512512E+06      0.5897637750E+06      0.8659158629E+06      0.1602331876E+03
         12                 2           0            34   95     1       0.2217833115E+01      34   95    1      -0.3934968803E+06      0.3971486610E+06      0.5897637750E+06      0.1602331876E+03
         13                 2           0            34   95     1       0.1552483154E+01      34   95    1      -0.2578022487E+06      0.2634058647E+06      0.3971486610E+06      0.1602331876E+03
         14                 2           0            34   95     1       0.1086738189E+01      34   95    1      -0.1628160085E+06      0.1716193092E+06      0.2634058647E+06      0.1602331876E+03
         15                 2           0            34   95     1       0.7607167195E+00      34   95    1      -0.9632564158E+05      0.1106311854E+06      0.1716193092E+06      0.1602331876E+03
          0                 3           2            34   95     1      -0.3312769313E+00      34   95    1      -0.4978238558E+05      0.7382743412E+05      0.1106311854E+06     -0.3312769313E+00
          0                 4           2            28   67     1       0.7350729226E-01      34   95    1      -0.2489131416E+04      0.3690989791E+04      0.7382743412E+05      0.7350729226E-01

    ------------------------------------------------
       NWT REQUIRED            4 OUTER ITERATIONS 
       AND A TOTAL OF          8 INNER ITERATIONS.
    ------------------------------------------------

 OUTPUT CONTROL FOR STRESS PERIOD    1   TIME STEP  239
    SAVE HEAD FOR ALL LAYERS
    SAVE DRAWDOWN FOR ALL LAYERS
    SAVE BUDGET
    PRINT BUDGET
 UBDSV1 SAVING "         STORAGE" ON UNIT   9 AT TIME STEP239, STRESS PERIOD   1
 UBDSV2 SAVING "   CONSTANT HEAD" ON UNIT   9 AT TIME STEP239, STRESS PERIOD   1
 UBDSV1 SAVING "FLOW RIGHT FACE " ON UNIT   9 AT TIME STEP239, STRESS PERIOD   1
 UBDSV1 SAVING "FLOW FRONT FACE " ON UNIT   9 AT TIME STEP239, STRESS PERIOD   1
 UBDSV4 SAVING "   RIVER LEAKAGE" ON UNIT   9 AT TIME STEP239, STRESS PERIOD   1
 UBDSV3 SAVING "        RECHARGE" ON UNIT   9 AT TIME STEP239, STRESS PERIOD   1

 HEAD WILL BE SAVED ON UNIT   37 AT END OF TIME STEP  239, STRESS PERIOD    1

 DRAWDOWN WILL BE SAVED ON UNIT   38 AT END OF TIME STEP  239, STRESS PERIOD    1
1
  VOLUMETRIC BUDGET FOR ENTIRE MODEL AT END OF TIME STEP  239, STRESS PERIOD   1
  ------------------------------------------------------------------------------

     CUMULATIVE VOLUMES      L**3       RATES FOR THIS TIME STEP      L**3/T
     ------------------                 ------------------------

           IN:                                      IN:
           ---                                      ---
             STORAGE =   207691472.0000               STORAGE =      791709.3750
       CONSTANT HEAD =           0.0000         CONSTANT HEAD =           0.0000
       RIVER LEAKAGE =   991099648.0000         RIVER LEAKAGE =     3922121.5000
            RECHARGE =      188097.8281              RECHARGE =         277.9049

            TOTAL IN =  1198979200.0000              TOTAL IN =     4714109.0000

          OUT:                                     OUT:
          ----                                     ----
             STORAGE =  1190975872.0000               STORAGE =     4577550.5000
       CONSTANT HEAD =           0.0000         CONSTANT HEAD =           0.0000
       RIVER LEAKAGE =     8245081.0000         RIVER LEAKAGE =      137418.2656
            RECHARGE =           0.0000              RECHARGE =           0.0000

           TOTAL OUT =  1199220992.0000             TOTAL OUT =     4714969.0000

            IN - OUT =     -241792.0000              IN - OUT =        -860.0000

 PERCENT DISCREPANCY =          -0.02     PERCENT DISCREPANCY =          -0.02






         TIME SUMMARY AT END OF TIME STEP  239 IN STRESS PERIOD    1
                    SECONDS     MINUTES      HOURS       DAYS        YEARS
                    -----------------------------------------------------------
   TIME STEP LENGTH  86400.      1440.0      24.000      1.0000     2.73785E-03
 STRESS PERIOD TIME 2.06496E+07 3.44160E+05  5736.0      239.00     0.65435    
         TOTAL TIME 2.06496E+07 3.44160E+05  5736.0      239.00     0.65435    
1
 
 SOLVING FOR HEAD 
                                                   Max.-Head-Change                        Max.-Flux-Residual
  Residual-Control   Outer-Iter.   Inner-Iter.     Column Row Layer    Max.-Head-Change    Column Row Layer    Max.-Flux-Residual            L2-New               L2-Old           Solver-Max-Delh
          0                 1           2            54   48     1       0.3541446085E+00      38   82    1       0.1446444573E+06      0.4974106449E+06      0.1844967680E+03      0.3541446085E+00
          0                 2           2            28   67     1       0.7354330466E-01      38   82    1      -0.1446475631E+05      0.4974154676E+05      0.4974106449E+06      0.7354330466E-01
          0                 3           2            28   67     1       0.7339989887E-01      38   82    1      -0.7232397638E+03      0.2487080748E+04      0.4974154676E+05      0.7339989887E-01

    ------------------------------------------------
       NWT REQUIRED            3 OUTER ITERATIONS 
       AND A TOTAL OF          6 INNER ITERATIONS.
    ------------------------------------------------

 OUTPUT CONTROL FOR STRESS PERIOD    1   TIME STEP  240
    SAVE HEAD FOR ALL LAYERS
    SAVE DRAWDOWN FOR ALL LAYERS
    SAVE BUDGET
    PRINT BUDGET
 UBDSV1 SAVING "         STORAGE" ON UNIT   9 AT TIME STEP240, STRESS PERIOD   1
 UBDSV2 SAVING "   CONSTANT HEAD" ON UNIT   9 AT TIME STEP240, STRESS PERIOD   1
 UBDSV1 SAVING "FLOW RIGHT FACE " ON UNIT   9 AT TIME STEP240, STRESS PERIOD   1
 UBDSV1 SAVING "FLOW FRONT FACE " ON UNIT   9 AT TIME STEP240, STRESS PERIOD   1
 UBDSV4 SAVING "   RIVER LEAKAGE" ON UNIT   9 AT TIME STEP240, STRESS PERIOD   1
 UBDSV3 SAVING "        RECHARGE" ON UNIT   9 AT TIME STEP240, STRESS PERIOD   1

 HEAD WILL BE SAVED ON UNIT   37 AT END OF TIME STEP  240, STRESS PERIOD    1

 DRAWDOWN WILL BE SAVED ON UNIT   38 AT END OF TIME STEP  240, STRESS PERIOD    1
1
  VOLUMETRIC BUDGET FOR ENTIRE MODEL AT END OF TIME STEP  240, STRESS PERIOD   1
  ------------------------------------------------------------------------------

     CUMULATIVE VOLUMES      L**3       RATES FOR THIS TIME STEP      L**3/T
     ------------------                 ------------------------

           IN:                                      IN:
           ---                                      ---
             STORAGE =   208483536.0000               STORAGE =      792066.7500
       CONSTANT HEAD =           0.0000         CONSTANT HEAD =           0.0000
       RIVER LEAKAGE =   994584064.0000         RIVER LEAKAGE =     3484419.7500
            RECHARGE =      188352.9688              RECHARGE =         255.1370

            TOTAL IN =  1203255936.0000              TOTAL IN =     4276742.0000

          OUT:                                     OUT:
          ----                                     ----
             STORAGE =  1195112320.0000               STORAGE =     4136471.5000
       CONSTANT HEAD =           0.0000         CONSTANT HEAD =           0.0000
       RIVER LEAKAGE =     8385853.5000         RIVER LEAKAGE =      140772.4375
            RECHARGE =           0.0000              RECHARGE =           0.0000

           TOTAL OUT =  1203498112.0000             TOTAL OUT =     4277244.0000

            IN - OUT =     -242176.0000              IN - OUT =        -502.0000

 PERCENT DISCREPANCY =          -0.02     PERCENT DISCREPANCY =          -0.01






         TIME SUMMARY AT END OF TIME STEP  240 IN STRESS PERIOD    1
                    SECONDS     MINUTES      HOURS       DAYS        YEARS
                    -----------------------------------------------------------
   TIME STEP LENGTH  86400.      1440.0      24.000      1.0000     2.73785E-03
 STRESS PERIOD TIME 2.07360E+07 3.45600E+05  5760.0      240.00     0.65708    
         TOTAL TIME 2.07360E+07 3.45600E+05  5760.0      240.00     0.65708    
1
 
 SOLVING FOR HEAD 
                                                   Max.-Head-Change                        Max.-Flux-Residual
  Residual-Control   Outer-Iter.   Inner-Iter.     Column Row Layer    Max.-Head-Change    Column Row Layer    Max.-Flux-Residual            L2-New               L2-Old           Solver-Max-Delh
          0                 1           2            34   88     1       0.1062189204E+01      26  115    1       0.5342716903E+06      0.1857870769E+07      0.1243347829E+03      0.1062189204E+01
          0                 2           2            37   77     1       0.1426958628E+03      36   75    1       0.1625583765E+06      0.2494930815E+06      0.1857870769E+07      0.1426958628E+03
          1                 2           0            37   77     1       0.9988710227E+02      37   77    1      -0.2380899129E+08      0.3046063752E+08      0.2494930815E+06      0.1426958628E+03
          2                 2           0            37   77     1       0.6992097040E+02      34   93    1       0.1740019154E+08      0.2408137714E+08      0.3046063752E+08      0.1426958628E+03
          3                 2           0            37   77     1       0.4894467845E+02      34   93    1       0.1217566531E+08      0.1684242385E+08      0.2408137714E+08      0.1426958628E+03
          4                 2           0            37   77     1       0.3426127433E+02      34   93    1       0.8518172204E+07      0.1177531588E+08      0.1684242385E+08      0.1426958628E+03
          5                 2           0            37   77     1       0.2398289162E+02      34   93    1       0.5957800765E+07      0.8228809363E+07      0.1177531588E+08      0.1426958628E+03
          6                 2           0            37   77     1       0.1678802385E+02      34   93    1       0.4165444711E+07      0.5747524204E+07      0.8228809363E+07      0.1426958628E+03
          7                 2           0            37   77     1       0.1175161649E+02      34   93    1       0.2910738258E+07      0.4011746825E+07      0.5747524204E+07      0.1426958628E+03
          8                 2           0            37   77     1       0.8226131406E+01      34   93    1       0.2032415710E+07      0.2798359304E+07      0.4011746825E+07      0.1426958628E+03
                                                   Max.-Head-Change                        Max.-Flux-Residual
  Residual-Control   Outer-Iter.   Inner-Iter.     Column Row Layer    Max.-Head-Change    Column Row Layer    Max.-Flux-Residual            L2-New               L2-Old           Solver-Max-Delh
          9                 2           0            37   77     1       0.5758291886E+01      34   93    1       0.1417576194E+07      0.1951399257E+07      0.2798359304E+07      0.1426958628E+03
         10                 2           0            37   77     1       0.4030804252E+01      34   93    1       0.9871818071E+06      0.1362019730E+07      0.1951399257E+07      0.1426958628E+03
         11                 2           0            37   77     1       0.2821562928E+01      34   93    1       0.6859024416E+06      0.9544847623E+06      0.1362019730E+07      0.1426958628E+03
         12                 2           0            37   77     1       0.1975094016E+01      34   93    1       0.4750052725E+06      0.6763492438E+06      0.9544847623E+06      0.1426958628E+03
         13                 2           0            37   77     1       0.1382565788E+01      34   93    1       0.3273764645E+06      0.4914114804E+06      0.6763492438E+06      0.1426958628E+03
         14                 2           0            37   77     1       0.9677960349E+00      34   93    1       0.2240359124E+06      0.3742618254E+06      0.4914114804E+06      0.1426958628E+03
         15                 2           0            37   77     1       0.6774572129E+00      36   75    1       0.1613456221E+06      0.3057212830E+06      0.3742618254E+06      0.1426958628E+03
          0                 3           2            36   75     1       0.1314600875E+01      36   75    1       0.1617094484E+06      0.2697937865E+06      0.3057212830E+06      0.1314600875E+01
          0                 4           2            36   75     1      -0.1135337492E+00      34   93    1       0.1793683048E+05      0.2596523730E+05      0.2697937865E+06     -0.1135337492E+00
          0                 5           2            28   67     1       0.7314545900E-01      34   93    1       0.3183542358E+04      0.3319028993E+04      0.2596523730E+05      0.7314545900E-01
                                                   Max.-Head-Change                        Max.-Flux-Residual
  Residual-Control   Outer-Iter.   Inner-Iter.     Column Row Layer    Max.-Head-Change    Column Row Layer    Max.-Flux-Residual            L2-New               L2-Old           Solver-Max-Delh
          0                 6           2            28   67     1       0.7300219073E-01      34   93    1       0.5650117886E+03      0.5669578272E+03      0.3319028993E+04      0.7300219073E-01

    ------------------------------------------------
       NWT REQUIRED            6 OUTER ITERATIONS 
       AND A TOTAL OF         12 INNER ITERATIONS.
    ------------------------------------------------

 OUTPUT CONTROL FOR STRESS PERIOD    1   TIME STEP  241
    SAVE HEAD FOR ALL LAYERS
    SAVE DRAWDOWN FOR ALL LAYERS
    SAVE BUDGET
    PRINT BUDGET
 UBDSV1 SAVING "         STORAGE" ON UNIT   9 AT TIME STEP241, STRESS PERIOD   1
 UBDSV2 SAVING "   CONSTANT HEAD" ON UNIT   9 AT TIME STEP241, STRESS PERIOD   1
 UBDSV1 SAVING "FLOW RIGHT FACE " ON UNIT   9 AT TIME STEP241, STRESS PERIOD   1
 UBDSV1 SAVING "FLOW FRONT FACE " ON UNIT   9 AT TIME STEP241, STRESS PERIOD   1
 UBDSV4 SAVING "   RIVER LEAKAGE" ON UNIT   9 AT TIME STEP241, STRESS PERIOD   1
 UBDSV3 SAVING "        RECHARGE" ON UNIT   9 AT TIME STEP241, STRESS PERIOD   1

 HEAD WILL BE SAVED ON UNIT   37 AT END OF TIME STEP  241, STRESS PERIOD    1

 DRAWDOWN WILL BE SAVED ON UNIT   38 AT END OF TIME STEP  241, STRESS PERIOD    1
1
  VOLUMETRIC BUDGET FOR ENTIRE MODEL AT END OF TIME STEP  241, STRESS PERIOD   1
  ------------------------------------------------------------------------------

     CUMULATIVE VOLUMES      L**3       RATES FOR THIS TIME STEP      L**3/T
     ------------------                 ------------------------

           IN:                                      IN:
           ---                                      ---
             STORAGE =   209271920.0000               STORAGE =      788380.5000
       CONSTANT HEAD =           0.0000         CONSTANT HEAD =           0.0000
       RIVER LEAKAGE =  1003114240.0000         RIVER LEAKAGE =     8530167.0000
            RECHARGE =      188588.1406              RECHARGE =         235.1714

            TOTAL IN =  1212574720.0000              TOTAL IN =     9318782.0000

          OUT:                                     OUT:
          ----                                     ----
             STORAGE =  1204302336.0000               STORAGE =     9189965.0000
       CONSTANT HEAD =           0.0000         CONSTANT HEAD =           0.0000
       RIVER LEAKAGE =     8514581.0000         RIVER LEAKAGE =      128727.2266
            RECHARGE =           0.0000              RECHARGE =           0.0000

           TOTAL OUT =  1212816896.0000             TOTAL OUT =     9318692.0000

            IN - OUT =     -242176.0000              IN - OUT =          90.0000

 PERCENT DISCREPANCY =          -0.02     PERCENT DISCREPANCY =           0.00






         TIME SUMMARY AT END OF TIME STEP  241 IN STRESS PERIOD    1
                    SECONDS     MINUTES      HOURS       DAYS        YEARS
                    -----------------------------------------------------------
   TIME STEP LENGTH  86400.      1440.0      24.000      1.0000     2.73785E-03
 STRESS PERIOD TIME 2.08224E+07 3.47040E+05  5784.0      241.00     0.65982    
         TOTAL TIME 2.08224E+07 3.47040E+05  5784.0      241.00     0.65982    
1
 
 SOLVING FOR HEAD 
                                                   Max.-Head-Change                        Max.-Flux-Residual
  Residual-Control   Outer-Iter.   Inner-Iter.     Column Row Layer    Max.-Head-Change    Column Row Layer    Max.-Flux-Residual            L2-New               L2-Old           Solver-Max-Delh
          0                 1           2            37   77     1       0.1034815767E+01      38   82    1       0.3018717539E+06      0.1073722198E+07      0.1003069103E+03      0.1034815767E+01
          0                 2           2            49   37     1       0.1726716108E+02      34   93    1       0.1199199598E+06      0.1603858920E+06      0.1073722198E+07      0.1726716108E+02
          1                 2           0            49   37     1       0.1208701255E+02      49   37    1      -0.6456877766E+06      0.6458210699E+06      0.1603858920E+06      0.1726716108E+02
          2                 2           0            49   37     1       0.8460908643E+01      49   37    1      -0.4506147234E+06      0.4528645029E+06      0.6458210699E+06      0.1726716108E+02
          3                 2           0            49   37     1       0.5922635949E+01      49   37    1      -0.3140635882E+06      0.3239289825E+06      0.4528645029E+06      0.1726716108E+02
          4                 2           0            49   37     1       0.4145845094E+01      49   37    1      -0.2184777952E+06      0.2417840773E+06      0.3239289825E+06      0.1726716108E+02
          5                 2           0            49   37     1       0.2902091516E+01      49   37    1      -0.1515677412E+06      0.1936835329E+06      0.2417840773E+06      0.1726716108E+02
          0                 3           2            49   37     1      -0.2642059644E+01      49   37    1      -0.1047307041E+06      0.1688983747E+06      0.1936835329E+06     -0.2642059644E+01
          0                 4           2            49   37     1      -0.1321043117E+00      34   93    1      -0.9775162801E+04      0.1195728146E+05      0.1688983747E+06     -0.1321043117E+00
          0                 5           2            28   67     1       0.7272328263E-01      34   93    1      -0.4887580211E+03      0.5978086856E+03      0.1195728146E+05      0.7272328263E-01

    ------------------------------------------------
       NWT REQUIRED            5 OUTER ITERATIONS 
       AND A TOTAL OF         10 INNER ITERATIONS.
    ------------------------------------------------

 OUTPUT CONTROL FOR STRESS PERIOD    1   TIME STEP  242
    SAVE HEAD FOR ALL LAYERS
    SAVE DRAWDOWN FOR ALL LAYERS
    SAVE BUDGET
    PRINT BUDGET
 UBDSV1 SAVING "         STORAGE" ON UNIT   9 AT TIME STEP242, STRESS PERIOD   1
 UBDSV2 SAVING "   CONSTANT HEAD" ON UNIT   9 AT TIME STEP242, STRESS PERIOD   1
 UBDSV1 SAVING "FLOW RIGHT FACE " ON UNIT   9 AT TIME STEP242, STRESS PERIOD   1
 UBDSV1 SAVING "FLOW FRONT FACE " ON UNIT   9 AT TIME STEP242, STRESS PERIOD   1
 UBDSV4 SAVING "   RIVER LEAKAGE" ON UNIT   9 AT TIME STEP242, STRESS PERIOD   1
 UBDSV3 SAVING "        RECHARGE" ON UNIT   9 AT TIME STEP242, STRESS PERIOD   1

 HEAD WILL BE SAVED ON UNIT   37 AT END OF TIME STEP  242, STRESS PERIOD    1

 DRAWDOWN WILL BE SAVED ON UNIT   38 AT END OF TIME STEP  242, STRESS PERIOD    1
1
  VOLUMETRIC BUDGET FOR ENTIRE MODEL AT END OF TIME STEP  242, STRESS PERIOD   1
  ------------------------------------------------------------------------------

     CUMULATIVE VOLUMES      L**3       RATES FOR THIS TIME STEP      L**3/T
     ------------------                 ------------------------

           IN:                                      IN:
           ---                                      ---
             STORAGE =   210059856.0000               STORAGE =      787938.6250
       CONSTANT HEAD =           0.0000         CONSTANT HEAD =           0.0000
       RIVER LEAKAGE =  1011239808.0000         RIVER LEAKAGE =     8125570.5000
            RECHARGE =      188808.3750              RECHARGE =         220.2281

            TOTAL IN =  1221488512.0000              TOTAL IN =     8913729.0000

          OUT:                                     OUT:
          ----                                     ----
             STORAGE =  1213073024.0000               STORAGE =     8770634.0000
       CONSTANT HEAD =           0.0000         CONSTANT HEAD =           0.0000
       RIVER LEAKAGE =     8657790.0000         RIVER LEAKAGE =      143208.5312
            RECHARGE =           0.0000              RECHARGE =           0.0000

           TOTAL OUT =  1221730816.0000             TOTAL OUT =     8913843.0000

            IN - OUT =     -242304.0000              IN - OUT =        -114.0000

 PERCENT DISCREPANCY =          -0.02     PERCENT DISCREPANCY =          -0.00






         TIME SUMMARY AT END OF TIME STEP  242 IN STRESS PERIOD    1
                    SECONDS     MINUTES      HOURS       DAYS        YEARS
                    -----------------------------------------------------------
   TIME STEP LENGTH  86400.      1440.0      24.000      1.0000     2.73785E-03
 STRESS PERIOD TIME 2.09088E+07 3.48480E+05  5808.0      242.00     0.66256    
         TOTAL TIME 2.09088E+07 3.48480E+05  5808.0      242.00     0.66256    
1
 
 SOLVING FOR HEAD 
                                                   Max.-Head-Change                        Max.-Flux-Residual
  Residual-Control   Outer-Iter.   Inner-Iter.     Column Row Layer    Max.-Head-Change    Column Row Layer    Max.-Flux-Residual            L2-New               L2-Old           Solver-Max-Delh
          0                 1           2            50   38     1      -0.8250095267E+00      26  115    1      -0.4679881521E+06      0.1356705738E+07      0.2990512121E+02     -0.8250095267E+00
          0                 2           2            35   83     1       0.1735896774E+03      26  115    1       0.4679890076E+05      0.1395695889E+06      0.1356705738E+07      0.1735896774E+03
          1                 2           0            35   83     1       0.1215127721E+03      35   83    1      -0.7866236025E+08      0.7866403969E+08      0.1395695889E+06      0.1735896774E+03
          2                 2           0            35   83     1       0.8505893902E+02      35   83    1      -0.5504493170E+08      0.5504611056E+08      0.7866403969E+08      0.1735896774E+03
          3                 2           0            35   83     1       0.5954125630E+02      35   83    1      -0.3851273200E+08      0.3851359676E+08      0.5504611056E+08      0.1735896774E+03
          4                 2           0            35   83     1       0.4167887870E+02      35   83    1      -0.2694019241E+08      0.2694088923E+08      0.3851359676E+08      0.1735896774E+03
          5                 2           0            35   83     1       0.2917521459E+02      35   83    1      -0.1883941483E+08      0.1884006844E+08      0.2694088923E+08      0.1735896774E+03
          6                 2           0            35   83     1       0.2042264987E+02      35   83    1      -0.1316905900E+08      0.1316978889E+08      0.1884006844E+08      0.1735896774E+03
          7                 2           0            35   83     1       0.1429585466E+02      35   83    1      -0.9200173515E+07      0.9201109599E+07      0.1316978889E+08      0.1735896774E+03
          8                 2           0            35   83     1       0.1000709809E+02      35   83    1      -0.6422169353E+07      0.6423469335E+07      0.9201109599E+07      0.1735896774E+03
                                                   Max.-Head-Change                        Max.-Flux-Residual
  Residual-Control   Outer-Iter.   Inner-Iter.     Column Row Layer    Max.-Head-Change    Column Row Layer    Max.-Flux-Residual            L2-New               L2-Old           Solver-Max-Delh
          9                 2           0            35   83     1       0.7004968547E+01      35   83    1      -0.4477658263E+07      0.4479529245E+07      0.6423469335E+07      0.1735896774E+03
         10                 2           0            35   83     1       0.4903477899E+01      35   83    1      -0.3116500523E+07      0.3119228375E+07      0.4479529245E+07      0.1735896774E+03
         11                 2           0            35   83     1       0.3432434471E+01      35   83    1      -0.2163690121E+07      0.2167681665E+07      0.3119228375E+07      0.1735896774E+03
         12                 2           0            35   83     1       0.2402704089E+01      35   83    1      -0.1496722851E+07      0.1502568998E+07      0.2167681665E+07      0.1735896774E+03
         13                 2           0            35   83     1       0.1681892833E+01      35   83    1      -0.1029845771E+07      0.1038416869E+07      0.1502568998E+07      0.1735896774E+03
         14                 2           0            35   83     1       0.1177324963E+01      35   83    1      -0.7030318195E+06      0.7156275342E+06      0.1038416869E+07      0.1735896774E+03
         15                 2           0            35   83     1       0.8241274603E+00      35   83    1      -0.4742620576E+06      0.4928422059E+06      0.7156275342E+06      0.1735896774E+03
         16                 2           0            35   83     1       0.5768892124E+00      35   83    1      -0.3141232271E+06      0.3416320340E+06      0.4928422059E+06      0.1735896774E+03
         17                 2           0            35   83     1       0.4038224418E+00      35   83    1      -0.2020260476E+06      0.2426988318E+06      0.3416320340E+06      0.1735896774E+03
         18                 2           0            35   83     1       0.2826757044E+00      35   83    1      -0.1235580233E+06      0.1827272063E+06      0.2426988318E+06      0.1735896774E+03
                                                   Max.-Head-Change                        Max.-Flux-Residual
  Residual-Control   Outer-Iter.   Inner-Iter.     Column Row Layer    Max.-Head-Change    Column Row Layer    Max.-Flux-Residual            L2-New               L2-Old           Solver-Max-Delh
          0                 3           2            50   38     1       0.3731765374E+01      35   83    1      -0.6863040720E+05      0.1511850274E+06      0.1827272063E+06      0.3731765374E+01
          1                 3           0            50   38     1       0.2612235717E+01      49   35    1      -0.3973763458E+06      0.5139447911E+06      0.1511850274E+06      0.3731765374E+01
          2                 3           0            50   38     1       0.1828564971E+01      49   35    1      -0.2769628214E+06      0.3611966699E+06      0.5139447911E+06      0.3731765374E+01
          3                 3           0            50   38     1       0.1279995458E+01      49   35    1      -0.1926733558E+06      0.2610677753E+06      0.3611966699E+06      0.3731765374E+01
          4                 3           0            50   38     1       0.8959968053E+00      49   35    1      -0.1336707309E+06      0.1996557274E+06      0.2610677753E+06      0.3731765374E+01
          0                 4           2            50   38     1      -0.6802821293E+00      49   35    1      -0.9236889415E+05      0.1660233770E+06      0.1996557274E+06     -0.6802821293E+00
          0                 5           2            50   38     1      -0.1207457350E+00      49   35    1      -0.1639468973E+05      0.2175659915E+05      0.1660233770E+06     -0.1207457350E+00
          0                 6           2            28   67     1       0.7243089118E-01      49   35    1      -0.2909753439E+04      0.3731441658E+04      0.2175659915E+05      0.7243089118E-01
          0                 7           2            28   67     1       0.7228785651E-01      49   35    1      -0.5163981852E+03      0.6603625739E+03      0.3731441658E+04      0.7228785651E-01

    ------------------------------------------------
       NWT REQUIRED            7 OUTER ITERATIONS 
       AND A TOTAL OF         14 INNER ITERATIONS.
    ------------------------------------------------

 OUTPUT CONTROL FOR STRESS PERIOD    1   TIME STEP  243
    SAVE HEAD FOR ALL LAYERS
    SAVE DRAWDOWN FOR ALL LAYERS
    SAVE BUDGET
    PRINT BUDGET
 UBDSV1 SAVING "         STORAGE" ON UNIT   9 AT TIME STEP243, STRESS PERIOD   1
 UBDSV2 SAVING "   CONSTANT HEAD" ON UNIT   9 AT TIME STEP243, STRESS PERIOD   1
 UBDSV1 SAVING "FLOW RIGHT FACE " ON UNIT   9 AT TIME STEP243, STRESS PERIOD   1
 UBDSV1 SAVING "FLOW FRONT FACE " ON UNIT   9 AT TIME STEP243, STRESS PERIOD   1
 UBDSV4 SAVING "   RIVER LEAKAGE" ON UNIT   9 AT TIME STEP243, STRESS PERIOD   1
 UBDSV3 SAVING "        RECHARGE" ON UNIT   9 AT TIME STEP243, STRESS PERIOD   1

 HEAD WILL BE SAVED ON UNIT   37 AT END OF TIME STEP  243, STRESS PERIOD    1

 DRAWDOWN WILL BE SAVED ON UNIT   38 AT END OF TIME STEP  243, STRESS PERIOD    1
1
  VOLUMETRIC BUDGET FOR ENTIRE MODEL AT END OF TIME STEP  243, STRESS PERIOD   1
  ------------------------------------------------------------------------------

     CUMULATIVE VOLUMES      L**3       RATES FOR THIS TIME STEP      L**3/T
     ------------------                 ------------------------

           IN:                                      IN:
           ---                                      ---
             STORAGE =   210858144.0000               STORAGE =      798282.1250
       CONSTANT HEAD =           0.0000         CONSTANT HEAD =           0.0000
       RIVER LEAKAGE =  1015440384.0000         RIVER LEAKAGE =     4200554.5000
            RECHARGE =      189014.5781              RECHARGE =         206.2087

            TOTAL IN =  1226487552.0000              TOTAL IN =     4999042.5000

          OUT:                                     OUT:
          ----                                     ----
             STORAGE =  1217912832.0000               STORAGE =     4839831.0000
       CONSTANT HEAD =           0.0000         CONSTANT HEAD =           0.0000
       RIVER LEAKAGE =     8817160.0000         RIVER LEAKAGE =      159370.2500
            RECHARGE =           0.0000              RECHARGE =           0.0000

           TOTAL OUT =  1226729984.0000             TOTAL OUT =     4999201.0000

            IN - OUT =     -242432.0000              IN - OUT =        -158.5000

 PERCENT DISCREPANCY =          -0.02     PERCENT DISCREPANCY =          -0.00






         TIME SUMMARY AT END OF TIME STEP  243 IN STRESS PERIOD    1
                    SECONDS     MINUTES      HOURS       DAYS        YEARS
                    -----------------------------------------------------------
   TIME STEP LENGTH  86400.      1440.0      24.000      1.0000     2.73785E-03
 STRESS PERIOD TIME 2.09952E+07 3.49920E+05  5832.0      243.00     0.66530    
         TOTAL TIME 2.09952E+07 3.49920E+05  5832.0      243.00     0.66530    
1
 
 SOLVING FOR HEAD 
                                                   Max.-Head-Change                        Max.-Flux-Residual
  Residual-Control   Outer-Iter.   Inner-Iter.     Column Row Layer    Max.-Head-Change    Column Row Layer    Max.-Flux-Residual            L2-New               L2-Old           Solver-Max-Delh
          0                 1           2            42   58     1      -0.4946948127E+00      43   59    1      -0.1335850508E+06      0.5328507760E+06      0.1171684443E+03     -0.4946948127E+00
          0                 2           2            39   50     1       0.1565179790E+02      43   59    1       0.1335850528E+05      0.5266546615E+05      0.5328507760E+06      0.1565179790E+02
          1                 2           0            39   50     1       0.1095625835E+02      39   50    1      -0.2609149498E+07      0.2807082693E+07      0.5266546615E+05      0.1565179790E+02
          2                 2           0            39   50     1       0.7669380711E+01      39   50    1      -0.1825391273E+07      0.1963230293E+07      0.2807082693E+07      0.1565179790E+02
          3                 2           0            39   50     1       0.5368566406E+01      39   50    1      -0.1276760524E+07      0.1372690023E+07      0.1963230293E+07      0.1565179790E+02
          4                 2           0            39   50     1       0.3757996420E+01      39   50    1      -0.8927190071E+06      0.9595360559E+06      0.1372690023E+07      0.1565179790E+02
          5                 2           0            39   50     1       0.2630597449E+01      39   50    1      -0.6238899495E+06      0.6706499485E+06      0.9595360559E+06      0.1565179790E+02
          6                 2           0            39   50     1       0.1841418183E+01      39   50    1      -0.4357096123E+06      0.4688912507E+06      0.6706499485E+06      0.1565179790E+02
          7                 2           0            39   50     1       0.1288992706E+01      39   50    1      -0.3039833785E+06      0.3283216002E+06      0.4688912507E+06      0.1565179790E+02
          8                 2           0            39   50     1       0.9022948791E+00      39   50    1      -0.2117750164E+06      0.2308656081E+06      0.3283216002E+06      0.1565179790E+02
                                                   Max.-Head-Change                        Max.-Flux-Residual
  Residual-Control   Outer-Iter.   Inner-Iter.     Column Row Layer    Max.-Head-Change    Column Row Layer    Max.-Flux-Residual            L2-New               L2-Old           Solver-Max-Delh
          9                 2           0            39   50     1       0.6316064046E+00      39   50    1      -0.1472291641E+06      0.1639708683E+06      0.2308656081E+06      0.1565179790E+02
         10                 2           0            39   50     1       0.4421244757E+00      39   50    1      -0.1020470682E+06      0.1189443892E+06      0.1639708683E+06      0.1565179790E+02
         11                 2           0            39   50     1       0.3094871277E+00      39   50    1      -0.7041960161E+05      0.8971188701E+05      0.1189443892E+06      0.1565179790E+02
         12                 2           0            39   50     1       0.2166409857E+00      39   50    1      -0.4828037538E+05      0.7182708783E+05      0.8971188701E+05      0.1565179790E+02
         13                 2           0            39   50     1       0.1516486874E+00      39   50    1      -0.3278291728E+05      0.6175155744E+05      0.7182708783E+05      0.1565179790E+02
          0                 3           2            39   50     1      -0.1080863867E+00      39   50    1      -0.2193469680E+05      0.5659170742E+05      0.6175155744E+05     -0.1080863867E+00
          0                 4           2            28   67     1       0.7217047588E-01      39   50    1      -0.3893408784E+04      0.4719680867E+04      0.5659170742E+05      0.7217047588E-01
          0                 5           2            28   67     1       0.7202737489E-01      39   50    1      -0.6910410123E+03      0.7108183956E+03      0.4719680867E+04      0.7202737489E-01

    ------------------------------------------------
       NWT REQUIRED            5 OUTER ITERATIONS 
       AND A TOTAL OF         10 INNER ITERATIONS.
    ------------------------------------------------

 OUTPUT CONTROL FOR STRESS PERIOD    1   TIME STEP  244
    SAVE HEAD FOR ALL LAYERS
    SAVE DRAWDOWN FOR ALL LAYERS
    SAVE BUDGET
    PRINT BUDGET
 UBDSV1 SAVING "         STORAGE" ON UNIT   9 AT TIME STEP244, STRESS PERIOD   1
 UBDSV2 SAVING "   CONSTANT HEAD" ON UNIT   9 AT TIME STEP244, STRESS PERIOD   1
 UBDSV1 SAVING "FLOW RIGHT FACE " ON UNIT   9 AT TIME STEP244, STRESS PERIOD   1
 UBDSV1 SAVING "FLOW FRONT FACE " ON UNIT   9 AT TIME STEP244, STRESS PERIOD   1
 UBDSV4 SAVING "   RIVER LEAKAGE" ON UNIT   9 AT TIME STEP244, STRESS PERIOD   1
 UBDSV3 SAVING "        RECHARGE" ON UNIT   9 AT TIME STEP244, STRESS PERIOD   1

 HEAD WILL BE SAVED ON UNIT   37 AT END OF TIME STEP  244, STRESS PERIOD    1

 DRAWDOWN WILL BE SAVED ON UNIT   38 AT END OF TIME STEP  244, STRESS PERIOD    1
1
  VOLUMETRIC BUDGET FOR ENTIRE MODEL AT END OF TIME STEP  244, STRESS PERIOD   1
  ------------------------------------------------------------------------------

     CUMULATIVE VOLUMES      L**3       RATES FOR THIS TIME STEP      L**3/T
     ------------------                 ------------------------

           IN:                                      IN:
           ---                                      ---
             STORAGE =   211649216.0000               STORAGE =      791066.4375
       CONSTANT HEAD =           0.0000         CONSTANT HEAD =           0.0000
       RIVER LEAKAGE =  1018712384.0000         RIVER LEAKAGE =     3272002.0000
            RECHARGE =      189214.4844              RECHARGE =         199.9127

            TOTAL IN =  1230550784.0000              TOTAL IN =     4063268.5000

          OUT:                                     OUT:
          ----                                     ----
             STORAGE =  1221822080.0000               STORAGE =     3909212.0000
       CONSTANT HEAD =           0.0000         CONSTANT HEAD =           0.0000
       RIVER LEAKAGE =     8971369.0000         RIVER LEAKAGE =      154208.7656
            RECHARGE =           0.0000              RECHARGE =           0.0000

           TOTAL OUT =  1230793472.0000             TOTAL OUT =     4063420.7500

            IN - OUT =     -242688.0000              IN - OUT =        -152.2500

 PERCENT DISCREPANCY =          -0.02     PERCENT DISCREPANCY =          -0.00






         TIME SUMMARY AT END OF TIME STEP  244 IN STRESS PERIOD    1
                    SECONDS     MINUTES      HOURS       DAYS        YEARS
                    -----------------------------------------------------------
   TIME STEP LENGTH  86400.      1440.0      24.000      1.0000     2.73785E-03
 STRESS PERIOD TIME 2.10816E+07 3.51360E+05  5856.0      244.00     0.66804    
         TOTAL TIME 2.10816E+07 3.51360E+05  5856.0      244.00     0.66804    
1
 
 SOLVING FOR HEAD 
                                                   Max.-Head-Change                        Max.-Flux-Residual
  Residual-Control   Outer-Iter.   Inner-Iter.     Column Row Layer    Max.-Head-Change    Column Row Layer    Max.-Flux-Residual            L2-New               L2-Old           Solver-Max-Delh
          0                 1           2            38   71     1       0.6247505889E+00      26  115    1       0.2316689864E+06      0.9175153912E+06      0.1242012568E+03      0.6247505889E+00
          0                 2           2             6  128     1       0.1992992233E+02      26  115    1      -0.2316695201E+05      0.9151898255E+05      0.9175153912E+06      0.1992992233E+02
          1                 2           0             6  128     1       0.1395094539E+02       6  128    1      -0.2569185007E+07      0.2569189106E+07      0.9151898255E+05      0.1992992233E+02
          2                 2           0             6  128     1       0.9765661610E+01       6  128    1      -0.1793726699E+07      0.1793988031E+07      0.2569189106E+07      0.1992992233E+02
          3                 2           0             6  128     1       0.6835963011E+01       6  128    1      -0.1250947752E+07      0.1251901540E+07      0.1793988031E+07      0.1992992233E+02
          4                 2           0             6  128     1       0.4785174026E+01       6  128    1      -0.8710007441E+06      0.8731781895E+06      0.1251901540E+07      0.1992992233E+02
          5                 2           0             6  128     1       0.3349621761E+01       6  128    1      -0.6050342708E+06      0.6091353117E+06      0.8731781895E+06      0.1992992233E+02
          6                 2           0             6  128     1       0.2344735193E+01       6  128    1      -0.4188577374E+06      0.4258442043E+06      0.6091353117E+06      0.1992992233E+02
          7                 2           0             6  128     1       0.1641314607E+01       6  128    1      -0.2885071277E+06      0.2997163988E+06      0.4258442043E+06      0.1992992233E+02
          8                 2           0             6  128     1       0.1148920205E+01       6  128    1      -0.1972593777E+06      0.2145043063E+06      0.2997163988E+06      0.1992992233E+02
                                                   Max.-Head-Change                        Max.-Flux-Residual
  Residual-Control   Outer-Iter.   Inner-Iter.     Column Row Layer    Max.-Head-Change    Column Row Layer    Max.-Flux-Residual            L2-New               L2-Old           Solver-Max-Delh
          9                 2           0             6  128     1       0.8042441301E+00       6  128    1      -0.1333859533E+06      0.1589305738E+06      0.2145043063E+06      0.1992992233E+02
         10                 2           0             6  128     1       0.5629708815E+00       6  128    1      -0.8867455674E+05      0.1248686021E+06      0.1589305738E+06      0.1992992233E+02
         11                 2           0             6  128     1       0.3940796103E+00       6  128    1      -0.5737657960E+05      0.1058634085E+06      0.1248686021E+06      0.1992992233E+02
          0                 3           2             6  128     1      -0.2597620486E+00       6  128    1      -0.3546799593E+05      0.9645974802E+05      0.1058634085E+06     -0.2597620486E+00
          0                 4           2            28   67     1       0.7190548208E-01       6  128    1      -0.1773405564E+04      0.4822160673E+04      0.9645974802E+05      0.7190548208E-01

    ------------------------------------------------
       NWT REQUIRED            4 OUTER ITERATIONS 
       AND A TOTAL OF          8 INNER ITERATIONS.
    ------------------------------------------------

 OUTPUT CONTROL FOR STRESS PERIOD    1   TIME STEP  245
    SAVE HEAD FOR ALL LAYERS
    SAVE DRAWDOWN FOR ALL LAYERS
    SAVE BUDGET
    PRINT BUDGET
 UBDSV1 SAVING "         STORAGE" ON UNIT   9 AT TIME STEP245, STRESS PERIOD   1
 UBDSV2 SAVING "   CONSTANT HEAD" ON UNIT   9 AT TIME STEP245, STRESS PERIOD   1
 UBDSV1 SAVING "FLOW RIGHT FACE " ON UNIT   9 AT TIME STEP245, STRESS PERIOD   1
 UBDSV1 SAVING "FLOW FRONT FACE " ON UNIT   9 AT TIME STEP245, STRESS PERIOD   1
 UBDSV4 SAVING "   RIVER LEAKAGE" ON UNIT   9 AT TIME STEP245, STRESS PERIOD   1
 UBDSV3 SAVING "        RECHARGE" ON UNIT   9 AT TIME STEP245, STRESS PERIOD   1

 HEAD WILL BE SAVED ON UNIT   37 AT END OF TIME STEP  245, STRESS PERIOD    1

 DRAWDOWN WILL BE SAVED ON UNIT   38 AT END OF TIME STEP  245, STRESS PERIOD    1
1
  VOLUMETRIC BUDGET FOR ENTIRE MODEL AT END OF TIME STEP  245, STRESS PERIOD   1
  ------------------------------------------------------------------------------

     CUMULATIVE VOLUMES      L**3       RATES FOR THIS TIME STEP      L**3/T
     ------------------                 ------------------------

           IN:                                      IN:
           ---                                      ---
             STORAGE =   212436384.0000               STORAGE =      787167.7500
       CONSTANT HEAD =           0.0000         CONSTANT HEAD =           0.0000
       RIVER LEAKAGE =  1023542080.0000         RIVER LEAKAGE =     4829675.0000
            RECHARGE =      189417.0938              RECHARGE =         202.6052

            TOTAL IN =  1236167936.0000              TOTAL IN =     5617045.0000

          OUT:                                     OUT:
          ----                                     ----
             STORAGE =  1227295104.0000               STORAGE =     5473013.5000
       CONSTANT HEAD =           0.0000         CONSTANT HEAD =           0.0000
       RIVER LEAKAGE =     9117911.0000         RIVER LEAKAGE =      146541.5156
            RECHARGE =           0.0000              RECHARGE =           0.0000

           TOTAL OUT =  1236413056.0000             TOTAL OUT =     5619555.0000

            IN - OUT =     -245120.0000              IN - OUT =       -2510.0000

 PERCENT DISCREPANCY =          -0.02     PERCENT DISCREPANCY =          -0.04






         TIME SUMMARY AT END OF TIME STEP  245 IN STRESS PERIOD    1
                    SECONDS     MINUTES      HOURS       DAYS        YEARS
                    -----------------------------------------------------------
   TIME STEP LENGTH  86400.      1440.0      24.000      1.0000     2.73785E-03
 STRESS PERIOD TIME 2.11680E+07 3.52800E+05  5880.0      245.00     0.67077    
         TOTAL TIME 2.11680E+07 3.52800E+05  5880.0      245.00     0.67077    
1
 
 SOLVING FOR HEAD 
                                                   Max.-Head-Change                        Max.-Flux-Residual
  Residual-Control   Outer-Iter.   Inner-Iter.     Column Row Layer    Max.-Head-Change    Column Row Layer    Max.-Flux-Residual            L2-New               L2-Old           Solver-Max-Delh
          0                 1           2             6  128     1       0.4745315437E+00      38   82    1       0.1751909088E+06      0.6334293456E+06      0.2410209177E+03      0.4745315437E+00
          0                 2           2            34   96     1       0.1346550639E+03      34   96    1       0.4283710559E+05      0.7586573151E+05      0.6334293456E+06      0.1346550639E+03
          1                 2           0            34   96     1       0.9425854310E+02      34   96    1      -0.1940554479E+08      0.1940554720E+08      0.7586573151E+05      0.1346550639E+03
          2                 2           0            34   96     1       0.6598097905E+02      34   96    1      -0.1356876035E+08      0.1356877782E+08      0.1940554720E+08      0.1346550639E+03
          3                 2           0            34   96     1       0.4618668455E+02      34   96    1      -0.9483011313E+07      0.9483071007E+07      0.1356877782E+08      0.1346550639E+03
          4                 2           0            34   96     1       0.3233067863E+02      34   96    1      -0.6622987036E+07      0.6623121760E+07      0.9483071007E+07      0.1346550639E+03
          5                 2           0            34   96     1       0.2263147466E+02      34   96    1      -0.4620970077E+07      0.4621222751E+07      0.6623121760E+07      0.1346550639E+03
          6                 2           0            34   96     1       0.1584203199E+02      34   96    1      -0.3219558229E+07      0.3219987891E+07      0.4621222751E+07      0.1346550639E+03
          7                 2           0            34   96     1       0.1108942220E+02      34   96    1      -0.2238569952E+07      0.2239260352E+07      0.3219987891E+07      0.1346550639E+03
          8                 2           0            34   96     1       0.7762595411E+01      34   96    1      -0.1551878170E+07      0.1552950635E+07      0.2239260352E+07      0.1346550639E+03
                                                   Max.-Head-Change                        Max.-Flux-Residual
  Residual-Control   Outer-Iter.   Inner-Iter.     Column Row Layer    Max.-Head-Change    Column Row Layer    Max.-Flux-Residual            L2-New               L2-Old           Solver-Max-Delh
          9                 2           0            34   96     1       0.5433816695E+01      34   96    1      -0.1071347733E+07      0.1072980860E+07      0.1552950635E+07      0.1346550639E+03
         10                 2           0            34   96     1       0.3803671622E+01      34   96    1      -0.7350061017E+06      0.7374679783E+06      0.1072980860E+07      0.1346550639E+03
         11                 2           0            34   96     1       0.2662570090E+01      34   96    1      -0.4995669642E+06      0.5032689544E+06      0.7374679783E+06      0.1346550639E+03
         12                 2           0            34   96     1       0.1863799031E+01      34   96    1      -0.3347595709E+06      0.3403502493E+06      0.5032689544E+06      0.1346550639E+03
         13                 2           0            34   96     1       0.1304659300E+01      34   96    1      -0.2194153000E+06      0.2279495220E+06      0.3403502493E+06      0.1346550639E+03
         14                 2           0            34   96     1       0.9132614942E+00      34   96    1      -0.1386817045E+06      0.1519249385E+06      0.2279495220E+06      0.1346550639E+03
         15                 2           0            34   96     1       0.6392830350E+00      34   96    1      -0.8216818872E+05      0.1030617232E+06      0.1519249385E+06      0.1346550639E+03
          0                 3           2            34   96     1      -0.2803415916E+00      34   96    1      -0.4260872840E+05      0.7550312655E+05      0.1030617232E+06     -0.2803415916E+00
          0                 4           2            28   67     1       0.7178264864E-01      34   96    1      -0.2130435770E+04      0.3774658256E+04      0.7550312655E+05      0.7178264864E-01

    ------------------------------------------------
       NWT REQUIRED            4 OUTER ITERATIONS 
       AND A TOTAL OF          8 INNER ITERATIONS.
    ------------------------------------------------

 OUTPUT CONTROL FOR STRESS PERIOD    1   TIME STEP  246
    SAVE HEAD FOR ALL LAYERS
    SAVE DRAWDOWN FOR ALL LAYERS
    SAVE BUDGET
    PRINT BUDGET
 UBDSV1 SAVING "         STORAGE" ON UNIT   9 AT TIME STEP246, STRESS PERIOD   1
 UBDSV2 SAVING "   CONSTANT HEAD" ON UNIT   9 AT TIME STEP246, STRESS PERIOD   1
 UBDSV1 SAVING "FLOW RIGHT FACE " ON UNIT   9 AT TIME STEP246, STRESS PERIOD   1
 UBDSV1 SAVING "FLOW FRONT FACE " ON UNIT   9 AT TIME STEP246, STRESS PERIOD   1
 UBDSV4 SAVING "   RIVER LEAKAGE" ON UNIT   9 AT TIME STEP246, STRESS PERIOD   1
 UBDSV3 SAVING "        RECHARGE" ON UNIT   9 AT TIME STEP246, STRESS PERIOD   1

 HEAD WILL BE SAVED ON UNIT   37 AT END OF TIME STEP  246, STRESS PERIOD    1

 DRAWDOWN WILL BE SAVED ON UNIT   38 AT END OF TIME STEP  246, STRESS PERIOD    1
1
  VOLUMETRIC BUDGET FOR ENTIRE MODEL AT END OF TIME STEP  246, STRESS PERIOD   1
  ------------------------------------------------------------------------------

     CUMULATIVE VOLUMES      L**3       RATES FOR THIS TIME STEP      L**3/T
     ------------------                 ------------------------

           IN:                                      IN:
           ---                                      ---
             STORAGE =   213225984.0000               STORAGE =      789600.1875
       CONSTANT HEAD =           0.0000         CONSTANT HEAD =           0.0000
       RIVER LEAKAGE =  1027514688.0000         RIVER LEAKAGE =     3972602.5000
            RECHARGE =      189630.4062              RECHARGE =         213.3054

            TOTAL IN =  1240930304.0000              TOTAL IN =     4762416.0000

          OUT:                                     OUT:
          ----                                     ----
             STORAGE =  1231904000.0000               STORAGE =     4608866.5000
       CONSTANT HEAD =           0.0000         CONSTANT HEAD =           0.0000
       RIVER LEAKAGE =     9271935.0000         RIVER LEAKAGE =      154024.2031
            RECHARGE =           0.0000              RECHARGE =           0.0000

           TOTAL OUT =  1241175936.0000             TOTAL OUT =     4762890.5000

            IN - OUT =     -245632.0000              IN - OUT =        -474.5000

 PERCENT DISCREPANCY =          -0.02     PERCENT DISCREPANCY =          -0.01






         TIME SUMMARY AT END OF TIME STEP  246 IN STRESS PERIOD    1
                    SECONDS     MINUTES      HOURS       DAYS        YEARS
                    -----------------------------------------------------------
   TIME STEP LENGTH  86400.      1440.0      24.000      1.0000     2.73785E-03
 STRESS PERIOD TIME 2.12544E+07 3.54240E+05  5904.0      246.00     0.67351    
         TOTAL TIME 2.12544E+07 3.54240E+05  5904.0      246.00     0.67351    
1
 
 SOLVING FOR HEAD 
                                                   Max.-Head-Change                        Max.-Flux-Residual
  Residual-Control   Outer-Iter.   Inner-Iter.     Column Row Layer    Max.-Head-Change    Column Row Layer    Max.-Flux-Residual            L2-New               L2-Old           Solver-Max-Delh
          0                 1           2            34   96     1       0.1135492750E+01      26  115    1       0.4193268583E+06      0.1517125580E+07      0.1886736030E+03      0.1135492750E+01
          0                 2           2            34   96     1      -0.9806540171E-01      26  115    1      -0.4193282836E+05      0.1517188745E+06      0.1517125580E+07     -0.9806540171E-01
          0                 3           2            28   67     1       0.7165785650E-01      26  115    1      -0.2096641414E+04      0.7585957563E+04      0.1517188745E+06      0.7165785650E-01

    ------------------------------------------------
       NWT REQUIRED            3 OUTER ITERATIONS 
       AND A TOTAL OF          6 INNER ITERATIONS.
    ------------------------------------------------

 OUTPUT CONTROL FOR STRESS PERIOD    1   TIME STEP  247
    SAVE HEAD FOR ALL LAYERS
    SAVE DRAWDOWN FOR ALL LAYERS
    SAVE BUDGET
    PRINT BUDGET
 UBDSV1 SAVING "         STORAGE" ON UNIT   9 AT TIME STEP247, STRESS PERIOD   1
 UBDSV2 SAVING "   CONSTANT HEAD" ON UNIT   9 AT TIME STEP247, STRESS PERIOD   1
 UBDSV1 SAVING "FLOW RIGHT FACE " ON UNIT   9 AT TIME STEP247, STRESS PERIOD   1
 UBDSV1 SAVING "FLOW FRONT FACE " ON UNIT   9 AT TIME STEP247, STRESS PERIOD   1
 UBDSV4 SAVING "   RIVER LEAKAGE" ON UNIT   9 AT TIME STEP247, STRESS PERIOD   1
 UBDSV3 SAVING "        RECHARGE" ON UNIT   9 AT TIME STEP247, STRESS PERIOD   1

 HEAD WILL BE SAVED ON UNIT   37 AT END OF TIME STEP  247, STRESS PERIOD    1

 DRAWDOWN WILL BE SAVED ON UNIT   38 AT END OF TIME STEP  247, STRESS PERIOD    1
1
  VOLUMETRIC BUDGET FOR ENTIRE MODEL AT END OF TIME STEP  247, STRESS PERIOD   1
  ------------------------------------------------------------------------------

     CUMULATIVE VOLUMES      L**3       RATES FOR THIS TIME STEP      L**3/T
     ------------------                 ------------------------

           IN:                                      IN:
           ---                                      ---
             STORAGE =   214011520.0000               STORAGE =      785529.5625
       CONSTANT HEAD =           0.0000         CONSTANT HEAD =           0.0000
       RIVER LEAKAGE =  1034542272.0000         RIVER LEAKAGE =     7027569.0000
            RECHARGE =      189859.6250              RECHARGE =         229.2177

            TOTAL IN =  1248743680.0000              TOTAL IN =     7813327.5000

          OUT:                                     OUT:
          ----                                     ----
             STORAGE =  1239575552.0000               STORAGE =     7671602.0000
       CONSTANT HEAD =           0.0000         CONSTANT HEAD =           0.0000
       RIVER LEAKAGE =     9417362.0000         RIVER LEAKAGE =      145426.8594
            RECHARGE =           0.0000              RECHARGE =           0.0000

           TOTAL OUT =  1248992896.0000             TOTAL OUT =     7817029.0000

            IN - OUT =     -249216.0000              IN - OUT =       -3701.5000

 PERCENT DISCREPANCY =          -0.02     PERCENT DISCREPANCY =          -0.05






         TIME SUMMARY AT END OF TIME STEP  247 IN STRESS PERIOD    1
                    SECONDS     MINUTES      HOURS       DAYS        YEARS
                    -----------------------------------------------------------
   TIME STEP LENGTH  86400.      1440.0      24.000      1.0000     2.73785E-03
 STRESS PERIOD TIME 2.13408E+07 3.55680E+05  5928.0      247.00     0.67625    
         TOTAL TIME 2.13408E+07 3.55680E+05  5928.0      247.00     0.67625    
1
 
 SOLVING FOR HEAD 
                                                   Max.-Head-Change                        Max.-Flux-Residual
  Residual-Control   Outer-Iter.   Inner-Iter.     Column Row Layer    Max.-Head-Change    Column Row Layer    Max.-Flux-Residual            L2-New               L2-Old           Solver-Max-Delh
          0                 1           2            37   77     1      -0.6563856846E+00      38   82    1       0.2284562811E+06      0.9367906183E+06      0.3792237510E+03     -0.6563856846E+00
          0                 2           2            28   67     1       0.7167484052E-01      38   82    1      -0.2284640281E+05      0.9367848931E+05      0.9367906183E+06      0.7167484052E-01
          0                 3           2            28   67     1       0.7153045428E-01      38   82    1      -0.1142325338E+04      0.4683936092E+04      0.9367848931E+05      0.7153045428E-01

    ------------------------------------------------
       NWT REQUIRED            3 OUTER ITERATIONS 
       AND A TOTAL OF          6 INNER ITERATIONS.
    ------------------------------------------------

 OUTPUT CONTROL FOR STRESS PERIOD    1   TIME STEP  248
    SAVE HEAD FOR ALL LAYERS
    SAVE DRAWDOWN FOR ALL LAYERS
    SAVE BUDGET
    PRINT BUDGET
 UBDSV1 SAVING "         STORAGE" ON UNIT   9 AT TIME STEP248, STRESS PERIOD   1
 UBDSV2 SAVING "   CONSTANT HEAD" ON UNIT   9 AT TIME STEP248, STRESS PERIOD   1
 UBDSV1 SAVING "FLOW RIGHT FACE " ON UNIT   9 AT TIME STEP248, STRESS PERIOD   1
 UBDSV1 SAVING "FLOW FRONT FACE " ON UNIT   9 AT TIME STEP248, STRESS PERIOD   1
 UBDSV4 SAVING "   RIVER LEAKAGE" ON UNIT   9 AT TIME STEP248, STRESS PERIOD   1
 UBDSV3 SAVING "        RECHARGE" ON UNIT   9 AT TIME STEP248, STRESS PERIOD   1

 HEAD WILL BE SAVED ON UNIT   37 AT END OF TIME STEP  248, STRESS PERIOD    1

 DRAWDOWN WILL BE SAVED ON UNIT   38 AT END OF TIME STEP  248, STRESS PERIOD    1
1
  VOLUMETRIC BUDGET FOR ENTIRE MODEL AT END OF TIME STEP  248, STRESS PERIOD   1
  ------------------------------------------------------------------------------

     CUMULATIVE VOLUMES      L**3       RATES FOR THIS TIME STEP      L**3/T
     ------------------                 ------------------------

           IN:                                      IN:
           ---                                      ---
             STORAGE =   214800432.0000               STORAGE =      788905.1875
       CONSTANT HEAD =           0.0000         CONSTANT HEAD =           0.0000
       RIVER LEAKAGE =  1039585280.0000         RIVER LEAKAGE =     5042997.5000
            RECHARGE =      190106.4062              RECHARGE =         246.7793

            TOTAL IN =  1254575744.0000              TOTAL IN =     5832149.5000

          OUT:                                     OUT:
          ----                                     ----
             STORAGE =  1245254528.0000               STORAGE =     5678960.5000
       CONSTANT HEAD =           0.0000         CONSTANT HEAD =           0.0000
       RIVER LEAKAGE =     9570770.0000         RIVER LEAKAGE =      153407.5000
            RECHARGE =           0.0000              RECHARGE =           0.0000

           TOTAL OUT =  1254825344.0000             TOTAL OUT =     5832368.0000

            IN - OUT =     -249600.0000              IN - OUT =        -218.5000

 PERCENT DISCREPANCY =          -0.02     PERCENT DISCREPANCY =          -0.00






         TIME SUMMARY AT END OF TIME STEP  248 IN STRESS PERIOD    1
                    SECONDS     MINUTES      HOURS       DAYS        YEARS
                    -----------------------------------------------------------
   TIME STEP LENGTH  86400.      1440.0      24.000      1.0000     2.73785E-03
 STRESS PERIOD TIME 2.14272E+07 3.57120E+05  5952.0      248.00     0.67899    
         TOTAL TIME 2.14272E+07 3.57120E+05  5952.0      248.00     0.67899    
1
 
 SOLVING FOR HEAD 
                                                   Max.-Head-Change                        Max.-Flux-Residual
  Residual-Control   Outer-Iter.   Inner-Iter.     Column Row Layer    Max.-Head-Change    Column Row Layer    Max.-Flux-Residual            L2-New               L2-Old           Solver-Max-Delh
          0                 1           2            65   15     1       0.3534543730E+00      38   82    1       0.2060357898E+06      0.6399555456E+06      0.2341641059E+03      0.3534543730E+00
          0                 2           2            20  122     1       0.7276082667E+02      20  122    1       0.3712475451E+05      0.7392600809E+05      0.6399555456E+06      0.7276082667E+02
          1                 2           0            20  122     1       0.5093257780E+02      20  122    1      -0.1049379357E+08      0.1054235542E+08      0.7392600809E+05      0.7276082667E+02
          2                 2           0            20  122     1       0.3565280385E+02      20  122    1      -0.7331507446E+07      0.7365353006E+07      0.1054235542E+08      0.7276082667E+02
          3                 2           0            20  122     1       0.2495696227E+02      20  122    1      -0.5117907195E+07      0.5141511624E+07      0.7365353006E+07      0.7276082667E+02
          4                 2           0            20  122     1       0.1746987329E+02      20  122    1      -0.3568387045E+07      0.3584909534E+07      0.5141511624E+07      0.7276082667E+02
          5                 2           0            20  122     1       0.1222891110E+02      20  122    1      -0.2483722959E+07      0.2495413702E+07      0.3584909534E+07      0.7276082667E+02
          6                 2           0            20  122     1       0.8560237622E+01      20  122    1      -0.1724532758E+07      0.1733023530E+07      0.2495413702E+07      0.7276082667E+02
          7                 2           0            20  122     1       0.5992166233E+01      20  122    1      -0.1193563154E+07      0.1200078467E+07      0.1733023530E+07      0.7276082667E+02
          8                 2           0            20  122     1       0.4194516292E+01      20  122    1      -0.8220318939E+06      0.8275572091E+06      0.1200078467E+07      0.7276082667E+02
                                                   Max.-Head-Change                        Max.-Flux-Residual
  Residual-Control   Outer-Iter.   Inner-Iter.     Column Row Layer    Max.-Head-Change    Column Row Layer    Max.-Flux-Residual            L2-New               L2-Old           Solver-Max-Delh
          9                 2           0            20  122     1       0.2936161354E+01      20  122    1      -0.5619600182E+06      0.5673816914E+06      0.8275572091E+06      0.7276082667E+02
         10                 2           0            20  122     1       0.2055312913E+01      20  122    1      -0.3799097090E+06      0.3861570326E+06      0.5673816914E+06      0.7276082667E+02
         11                 2           0            20  122     1       0.1438719015E+01      20  122    1      -0.2524744951E+06      0.2606995461E+06      0.3861570326E+06      0.7276082667E+02
         12                 2           0            20  122     1       0.1007103293E+01      20  122    1      -0.1632698471E+06      0.1751119765E+06      0.2606995461E+06      0.7276082667E+02
         13                 2           0            20  122     1       0.7049722931E+00      20  122    1      -0.1008265946E+06      0.1187965687E+06      0.1751119765E+06      0.7276082667E+02
         14                 2           0            20  122     1       0.4934805968E+00      20  122    1      -0.5711631870E+05      0.8491267066E+05      0.1187965687E+06      0.7276082667E+02
          0                 3           2            41   53     1       0.8024026282E+00      20  122    1      -0.2651912608E+05      0.6836243313E+05      0.8491267066E+05      0.8024026282E+00
          0                 4           2            28   67     1       0.7139949034E-01      20  122    1      -0.1325962916E+04      0.3433842842E+04      0.6836243313E+05      0.7139949034E-01

    ------------------------------------------------
       NWT REQUIRED            4 OUTER ITERATIONS 
       AND A TOTAL OF          8 INNER ITERATIONS.
    ------------------------------------------------

 OUTPUT CONTROL FOR STRESS PERIOD    1   TIME STEP  249
    SAVE HEAD FOR ALL LAYERS
    SAVE DRAWDOWN FOR ALL LAYERS
    SAVE BUDGET
    PRINT BUDGET
 UBDSV1 SAVING "         STORAGE" ON UNIT   9 AT TIME STEP249, STRESS PERIOD   1
 UBDSV2 SAVING "   CONSTANT HEAD" ON UNIT   9 AT TIME STEP249, STRESS PERIOD   1
 UBDSV1 SAVING "FLOW RIGHT FACE " ON UNIT   9 AT TIME STEP249, STRESS PERIOD   1
 UBDSV1 SAVING "FLOW FRONT FACE " ON UNIT   9 AT TIME STEP249, STRESS PERIOD   1
 UBDSV4 SAVING "   RIVER LEAKAGE" ON UNIT   9 AT TIME STEP249, STRESS PERIOD   1
 UBDSV3 SAVING "        RECHARGE" ON UNIT   9 AT TIME STEP249, STRESS PERIOD   1

 HEAD WILL BE SAVED ON UNIT   37 AT END OF TIME STEP  249, STRESS PERIOD    1

 DRAWDOWN WILL BE SAVED ON UNIT   38 AT END OF TIME STEP  249, STRESS PERIOD    1
1
  VOLUMETRIC BUDGET FOR ENTIRE MODEL AT END OF TIME STEP  249, STRESS PERIOD   1
  ------------------------------------------------------------------------------

     CUMULATIVE VOLUMES      L**3       RATES FOR THIS TIME STEP      L**3/T
     ------------------                 ------------------------

           IN:                                      IN:
           ---                                      ---
             STORAGE =   215587728.0000               STORAGE =      787289.4375
       CONSTANT HEAD =           0.0000         CONSTANT HEAD =           0.0000
       RIVER LEAKAGE =  1043843456.0000         RIVER LEAKAGE =     4258166.0000
            RECHARGE =      190369.0938              RECHARGE =         262.6881

            TOTAL IN =  1259621632.0000              TOTAL IN =     5045718.0000

          OUT:                                     OUT:
          ----                                     ----
             STORAGE =  1250147200.0000               STORAGE =     4892635.0000
       CONSTANT HEAD =           0.0000         CONSTANT HEAD =           0.0000
       RIVER LEAKAGE =     9724541.0000         RIVER LEAKAGE =      153770.6875
            RECHARGE =           0.0000              RECHARGE =           0.0000

           TOTAL OUT =  1259871744.0000             TOTAL OUT =     5046405.5000

            IN - OUT =     -250112.0000              IN - OUT =        -687.5000

 PERCENT DISCREPANCY =          -0.02     PERCENT DISCREPANCY =          -0.01






         TIME SUMMARY AT END OF TIME STEP  249 IN STRESS PERIOD    1
                    SECONDS     MINUTES      HOURS       DAYS        YEARS
                    -----------------------------------------------------------
   TIME STEP LENGTH  86400.      1440.0      24.000      1.0000     2.73785E-03
 STRESS PERIOD TIME 2.15136E+07 3.58560E+05  5976.0      249.00     0.68172    
         TOTAL TIME 2.15136E+07 3.58560E+05  5976.0      249.00     0.68172    
1
 
 SOLVING FOR HEAD 
                                                   Max.-Head-Change                        Max.-Flux-Residual
  Residual-Control   Outer-Iter.   Inner-Iter.     Column Row Layer    Max.-Head-Change    Column Row Layer    Max.-Flux-Residual            L2-New               L2-Old           Solver-Max-Delh
          0                 1           2            20  122     1       0.1243901381E+01      26  115    1       0.5780474475E+06      0.2078379773E+07      0.1716335823E+03      0.1243901381E+01
          0                 2           2            33  102     1       0.4583696867E+03      33  102    1       0.6997027102E+05      0.2207549885E+06      0.2078379773E+07      0.4583696867E+03
          1                 2           0            33  102     1       0.3208587752E+03      33  102    1      -0.3440750292E+08      0.3440751163E+08      0.2207549885E+06      0.4583696867E+03
          2                 2           0            33  102     1       0.2246011388E+03      33  102    1      -0.2406376865E+08      0.2406387354E+08      0.3440751163E+08      0.4583696867E+03
          3                 2           0            33  102     1       0.1572207945E+03      33  102    1      -0.1682315479E+08      0.1682352663E+08      0.2406387354E+08      0.4583696867E+03
          4                 2           0            33  102     1       0.1100545543E+03      33  102    1      -0.1175472517E+08      0.1175557018E+08      0.1682352663E+08      0.4583696867E+03
          5                 2           0            33  102     1       0.7703818669E+02      33  102    1      -0.8206824502E+07      0.8208412013E+07      0.1175557018E+08      0.4583696867E+03
          6                 2           0            33  102     1       0.5392672976E+02      33  102    1      -0.5723236667E+07      0.5725936081E+07      0.8208412013E+07      0.4583696867E+03
          7                 2           0            33  102     1       0.3774871019E+02      33  102    1      -0.3984740289E+07      0.3989072925E+07      0.5725936081E+07      0.4583696867E+03
          8                 2           0            33  102     1       0.2642409668E+02      33  102    1      -0.2767792845E+07      0.2774508139E+07      0.3989072925E+07      0.4583696867E+03
                                                   Max.-Head-Change                        Max.-Flux-Residual
  Residual-Control   Outer-Iter.   Inner-Iter.     Column Row Layer    Max.-Head-Change    Column Row Layer    Max.-Flux-Residual            L2-New               L2-Old           Solver-Max-Delh
          9                 2           0            33  102     1       0.1849686736E+02      33  102    1      -0.1915929648E+07      0.1926118764E+07      0.2774508139E+07      0.4583696867E+03
         10                 2           0            33  102     1       0.1294780693E+02      33  102    1      -0.1319625421E+07      0.1334892399E+07      0.1926118764E+07      0.4583696867E+03
         11                 2           0            33  102     1       0.9063464699E+01      33  102    1      -0.9022794083E+06      0.9249941967E+06      0.1334892399E+07      0.4583696867E+03
         12                 2           0            33  102     1       0.6344425181E+01      33  102    1      -0.6102043918E+06      0.6438540841E+06      0.9249941967E+06      0.4583696867E+03
         13                 2           0            33  102     1       0.4441097551E+01      33  102    1      -0.4057518837E+06      0.4553256730E+06      0.6438540841E+06      0.4583696867E+03
         14                 2           0            33  102     1       0.3108768233E+01      33  102    1      -0.2626351304E+06      0.3346752122E+06      0.4553256730E+06      0.4583696867E+03
         15                 2           0            33  102     1       0.2176137726E+01      33  102    1      -0.1624534049E+06      0.2639367344E+06      0.3346752122E+06      0.4583696867E+03
          0                 3           2            33  102     1      -0.1166473318E+01      33  102    1      -0.9232619818E+05      0.2279580286E+06      0.2639367344E+06     -0.1166473318E+01
          0                 4           2            28   67     1       0.7126626708E-01      33  102    1      -0.4616315620E+04      0.1169425486E+05      0.2279580286E+06      0.7126626708E-01
          0                 5           2            28   67     1       0.7112150704E-01      33  102    1      -0.2307695214E+03      0.5845138051E+03      0.1169425486E+05      0.7112150704E-01

    ------------------------------------------------
       NWT REQUIRED            5 OUTER ITERATIONS 
       AND A TOTAL OF         10 INNER ITERATIONS.
    ------------------------------------------------

 OUTPUT CONTROL FOR STRESS PERIOD    1   TIME STEP  250
    SAVE HEAD FOR ALL LAYERS
    SAVE DRAWDOWN FOR ALL LAYERS
    SAVE BUDGET
    PRINT BUDGET
 UBDSV1 SAVING "         STORAGE" ON UNIT   9 AT TIME STEP250, STRESS PERIOD   1
 UBDSV2 SAVING "   CONSTANT HEAD" ON UNIT   9 AT TIME STEP250, STRESS PERIOD   1
 UBDSV1 SAVING "FLOW RIGHT FACE " ON UNIT   9 AT TIME STEP250, STRESS PERIOD   1
 UBDSV1 SAVING "FLOW FRONT FACE " ON UNIT   9 AT TIME STEP250, STRESS PERIOD   1
 UBDSV4 SAVING "   RIVER LEAKAGE" ON UNIT   9 AT TIME STEP250, STRESS PERIOD   1
 UBDSV3 SAVING "        RECHARGE" ON UNIT   9 AT TIME STEP250, STRESS PERIOD   1

 HEAD WILL BE SAVED ON UNIT   37 AT END OF TIME STEP  250, STRESS PERIOD    1

 DRAWDOWN WILL BE SAVED ON UNIT   38 AT END OF TIME STEP  250, STRESS PERIOD    1
1
  VOLUMETRIC BUDGET FOR ENTIRE MODEL AT END OF TIME STEP  250, STRESS PERIOD   1
  ------------------------------------------------------------------------------

     CUMULATIVE VOLUMES      L**3       RATES FOR THIS TIME STEP      L**3/T
     ------------------                 ------------------------

           IN:                                      IN:
           ---                                      ---
             STORAGE =   216369120.0000               STORAGE =      781385.8750
       CONSTANT HEAD =           0.0000         CONSTANT HEAD =           0.0000
       RIVER LEAKAGE =  1053691904.0000         RIVER LEAKAGE =     9848462.0000
            RECHARGE =      213306.6094              RECHARGE =       22937.5156

            TOTAL IN =  1270274304.0000              TOTAL IN =    10652786.0000

          OUT:                                     OUT:
          ----                                     ----
             STORAGE =  1260659072.0000               STORAGE =    10511844.0000
       CONSTANT HEAD =           0.0000         CONSTANT HEAD =           0.0000
       RIVER LEAKAGE =     9865778.0000         RIVER LEAKAGE =      141236.8594
            RECHARGE =           0.0000              RECHARGE =           0.0000

           TOTAL OUT =  1270524800.0000             TOTAL OUT =    10653081.0000

            IN - OUT =     -250496.0000              IN - OUT =        -295.0000

 PERCENT DISCREPANCY =          -0.02     PERCENT DISCREPANCY =          -0.00






         TIME SUMMARY AT END OF TIME STEP  250 IN STRESS PERIOD    1
                    SECONDS     MINUTES      HOURS       DAYS        YEARS
                    -----------------------------------------------------------
   TIME STEP LENGTH  86400.      1440.0      24.000      1.0000     2.73785E-03
 STRESS PERIOD TIME 2.16000E+07 3.60000E+05  6000.0      250.00     0.68446    
         TOTAL TIME 2.16000E+07 3.60000E+05  6000.0      250.00     0.68446    
1
 
 SOLVING FOR HEAD 
                                                   Max.-Head-Change                        Max.-Flux-Residual
  Residual-Control   Outer-Iter.   Inner-Iter.     Column Row Layer    Max.-Head-Change    Column Row Layer    Max.-Flux-Residual            L2-New               L2-Old           Solver-Max-Delh
          0                 1           2            33  102     1       0.8470347562E+00      34   98    1       0.4368176684E+06      0.1506471531E+07      0.2923493170E+02      0.8470347562E+00
          0                 2           2            34   97     1      -0.4480837421E+02       6  129    1       0.1171500359E+06      0.2132067072E+06      0.1506471531E+07     -0.4480837421E+02
          1                 2           0            34   97     1      -0.3136586141E+02      34   97    1       0.1445307332E+08      0.1445852606E+08      0.2132067072E+06     -0.4480837421E+02
          2                 2           0            34   97     1      -0.2195610262E+02      34   97    1       0.1445040655E+08      0.1445318224E+08      0.1445852606E+08     -0.4480837421E+02
          3                 2           0            34   97     1      -0.1536927157E+02      34   97    1       0.1444853956E+08      0.1445021123E+08      0.1445318224E+08     -0.4480837421E+02
          4                 2           0            34   97     1      -0.1075848992E+02      34   97    1       0.1444723254E+08      0.1444850905E+08      0.1445021123E+08     -0.4480837421E+02
          5                 2           0            34   97     1      -0.7530942812E+01      34   97    1       0.1073528667E+08      0.1073688137E+08      0.1444850905E+08     -0.4480837421E+02
          6                 2           0            34   97     1      -0.5271659879E+01      34   97    1       0.7507180878E+07      0.7509512529E+07      0.1073688137E+08     -0.4480837421E+02
          7                 2           0            34   97     1      -0.3690161852E+01      34   97    1       0.5247382881E+07      0.5250891993E+07      0.7509512529E+07     -0.4480837421E+02
          8                 2           0            34   97     1      -0.2583113253E+01      34   97    1       0.3665463560E+07      0.3670745268E+07      0.5250891993E+07     -0.4480837421E+02
                                                   Max.-Head-Change                        Max.-Flux-Residual
  Residual-Control   Outer-Iter.   Inner-Iter.     Column Row Layer    Max.-Head-Change    Column Row Layer    Max.-Flux-Residual            L2-New               L2-Old           Solver-Max-Delh
          9                 2           0            34   97     1      -0.1808179246E+01      34   97    1       0.2558090287E+07      0.2565973107E+07      0.3670745268E+07     -0.4480837421E+02
         10                 2           0            34   97     1      -0.1265725451E+01      34   97    1       0.1782914423E+07      0.1794569091E+07      0.2565973107E+07     -0.4480837421E+02
         11                 2           0            34   97     1      -0.8860078004E+00      34   97    1       0.1240284180E+07      0.1257372249E+07      0.1794569091E+07     -0.4480837421E+02
         12                 2           0            34   97     1      -0.6202054497E+00      34   97    1       0.8604395150E+06      0.8853036899E+06      0.1257372249E+07     -0.4480837421E+02
         13                 2           0            34   97     1      -0.4341438074E+00      34   97    1       0.5945467593E+06      0.6304114275E+06      0.8853036899E+06     -0.4480837421E+02
         14                 2           0            34   97     1      -0.3039006600E+00      34   97    1       0.4084226602E+06      0.4594769113E+06      0.6304114275E+06     -0.4480837421E+02
         15                 2           0            34   97     1      -0.2127304584E+00      34   97    1       0.2781351753E+06      0.3491954539E+06      0.4594769113E+06     -0.4480837421E+02
         16                 2           0            34   97     1      -0.1489113183E+00      34   97    1       0.1869336347E+06      0.2823307190E+06      0.3491954539E+06     -0.4480837421E+02
         17                 2           0            34   97     1      -0.1042379211E+00      34   97    1       0.1230924091E+06      0.2450512832E+06      0.2823307190E+06     -0.4480837421E+02
          0                 3           2            65   15     1      -0.3986772188E+01       6  129    1       0.1168502573E+06      0.2261370540E+06      0.2450512832E+06     -0.3986772188E+01
                                                   Max.-Head-Change                        Max.-Flux-Residual
  Residual-Control   Outer-Iter.   Inner-Iter.     Column Row Layer    Max.-Head-Change    Column Row Layer    Max.-Flux-Residual            L2-New               L2-Old           Solver-Max-Delh
          1                 3           0            65   15     1      -0.2790740484E+01      65   15    1       0.3967298444E+06      0.3973388584E+06      0.2261370540E+06     -0.3986772188E+01
          2                 3           0            65   15     1      -0.1953518306E+01      65   15    1       0.2770064827E+06      0.2854536309E+06      0.3973388584E+06     -0.3986772188E+01
          0                 4           2            65   15     1       0.1586897214E+01      65   15    1       0.1931831078E+06      0.2250150776E+06      0.2854536309E+06      0.1586897214E+01
          0                 5           2            65   15     1       0.2813680764E+00      65   15    1       0.3426316801E+05      0.3617295726E+05      0.2250150776E+06      0.2813680764E+00
          0                 6           2            28   67     1       0.7077128829E-01      65   15    1       0.6080285278E+04      0.6269548151E+04      0.3617295726E+05      0.7077128829E-01
          0                 7           2            28   67     1       0.7062696402E-01      65   15    1       0.1079052161E+04      0.1110505882E+04      0.6269548151E+04      0.7062696402E-01
          1                 7           0            28   67     1       0.4943887397E-01      29   68    1      -0.2496750780E+04      0.2504514056E+04      0.1110505882E+04      0.7062696402E-01
          0                 8           2            28   67     1       0.7052614374E-01      29   68    1      -0.4638693820E+03      0.6611238434E+03      0.2504514056E+04      0.7052614374E-01

    ------------------------------------------------
       NWT REQUIRED            8 OUTER ITERATIONS 
       AND A TOTAL OF         16 INNER ITERATIONS.
    ------------------------------------------------

 OUTPUT CONTROL FOR STRESS PERIOD    1   TIME STEP  251
    SAVE HEAD FOR ALL LAYERS
    SAVE DRAWDOWN FOR ALL LAYERS
    SAVE BUDGET
    PRINT BUDGET
 UBDSV1 SAVING "         STORAGE" ON UNIT   9 AT TIME STEP251, STRESS PERIOD   1
 UBDSV2 SAVING "   CONSTANT HEAD" ON UNIT   9 AT TIME STEP251, STRESS PERIOD   1
 UBDSV1 SAVING "FLOW RIGHT FACE " ON UNIT   9 AT TIME STEP251, STRESS PERIOD   1
 UBDSV1 SAVING "FLOW FRONT FACE " ON UNIT   9 AT TIME STEP251, STRESS PERIOD   1
 UBDSV4 SAVING "   RIVER LEAKAGE" ON UNIT   9 AT TIME STEP251, STRESS PERIOD   1
 UBDSV3 SAVING "        RECHARGE" ON UNIT   9 AT TIME STEP251, STRESS PERIOD   1

 HEAD WILL BE SAVED ON UNIT   37 AT END OF TIME STEP  251, STRESS PERIOD    1

 DRAWDOWN WILL BE SAVED ON UNIT   38 AT END OF TIME STEP  251, STRESS PERIOD    1
1
  VOLUMETRIC BUDGET FOR ENTIRE MODEL AT END OF TIME STEP  251, STRESS PERIOD   1
  ------------------------------------------------------------------------------

     CUMULATIVE VOLUMES      L**3       RATES FOR THIS TIME STEP      L**3/T
     ------------------                 ------------------------

           IN:                                      IN:
           ---                                      ---
             STORAGE =   217149808.0000               STORAGE =      780693.7500
       CONSTANT HEAD =           0.0000         CONSTANT HEAD =           0.0000
       RIVER LEAKAGE =  1064613952.0000         RIVER LEAKAGE =    10922051.0000
            RECHARGE =      265443.4062              RECHARGE =       52136.8086

            TOTAL IN =  1282029184.0000              TOTAL IN =    11754882.0000

          OUT:                                     OUT:
          ----                                     ----
             STORAGE =  1272260736.0000               STORAGE =    11601665.0000
       CONSTANT HEAD =           0.0000         CONSTANT HEAD =           0.0000
       RIVER LEAKAGE =    10018916.0000         RIVER LEAKAGE =      153138.0000
            RECHARGE =           0.0000              RECHARGE =           0.0000

           TOTAL OUT =  1282279680.0000             TOTAL OUT =    11754803.0000

            IN - OUT =     -250496.0000              IN - OUT =          79.0000

 PERCENT DISCREPANCY =          -0.02     PERCENT DISCREPANCY =           0.00






         TIME SUMMARY AT END OF TIME STEP  251 IN STRESS PERIOD    1
                    SECONDS     MINUTES      HOURS       DAYS        YEARS
                    -----------------------------------------------------------
   TIME STEP LENGTH  86400.      1440.0      24.000      1.0000     2.73785E-03
 STRESS PERIOD TIME 2.16864E+07 3.61440E+05  6024.0      251.00     0.68720    
         TOTAL TIME 2.16864E+07 3.61440E+05  6024.0      251.00     0.68720    
1
 
 SOLVING FOR HEAD 
                                                   Max.-Head-Change                        Max.-Flux-Residual
  Residual-Control   Outer-Iter.   Inner-Iter.     Column Row Layer    Max.-Head-Change    Column Row Layer    Max.-Flux-Residual            L2-New               L2-Old           Solver-Max-Delh
          0                 1           2            34   98     1      -0.9450388362E+00      34   98    1      -0.8745553028E+06      0.1758009706E+07      0.8674874452E+02     -0.9450388362E+00
          0                 2           2            20  121     1       0.1939284030E+03      34   97    1       0.1147081690E+06      0.2248423285E+06      0.1758009706E+07      0.1939284030E+03
          1                 2           0            20  121     1       0.1357498798E+03      20  121    1      -0.2939890627E+08      0.2945399304E+08      0.2248423285E+06      0.1939284030E+03
          2                 2           0            20  121     1       0.9502491422E+02      20  121    1      -0.2055350858E+08      0.2059206926E+08      0.2945399304E+08      0.1939284030E+03
          3                 2           0            20  121     1       0.6651743882E+02      20  121    1      -0.1436173030E+08      0.1438895543E+08      0.2059206926E+08      0.1939284030E+03
          4                 2           0            20  121     1       0.4656220638E+02      20  121    1      -0.1002748558E+08      0.1004711012E+08      0.1438895543E+08      0.1939284030E+03
          5                 2           0            20  121     1       0.3259354391E+02      20  121    1      -0.6993514322E+07      0.7008299767E+07      0.1004711012E+08      0.1939284030E+03
          6                 2           0            20  121     1       0.2281548035E+02      20  121    1      -0.4869734481E+07      0.4881827714E+07      0.7008299767E+07      0.1939284030E+03
          7                 2           0            20  121     1       0.1597083597E+02      20  121    1      -0.3383671748E+07      0.3394886839E+07      0.4881827714E+07      0.1939284030E+03
          8                 2           0            20  121     1       0.1117958499E+02      20  121    1      -0.2343619575E+07      0.2355687992E+07      0.3394886839E+07      0.1939284030E+03
                                                   Max.-Head-Change                        Max.-Flux-Residual
  Residual-Control   Outer-Iter.   Inner-Iter.     Column Row Layer    Max.-Head-Change    Column Row Layer    Max.-Flux-Residual            L2-New               L2-Old           Solver-Max-Delh
          9                 2           0            20  121     1       0.7825709360E+01      20  121    1      -0.1615583071E+07      0.1630404194E+07      0.2355687992E+07      0.1939284030E+03
         10                 2           0            20  121     1       0.5477996459E+01      20  121    1      -0.1105957528E+07      0.1125893161E+07      0.1630404194E+07      0.1939284030E+03
         11                 2           0            20  121     1       0.3834597456E+01      20  121    1      -0.7492196557E+06      0.7774778469E+06      0.1125893161E+07      0.1939284030E+03
         12                 2           0            20  121     1       0.2684218174E+01      20  121    1      -0.4995031495E+06      0.5406263723E+06      0.7774778469E+06      0.1939284030E+03
         13                 2           0            20  121     1       0.1878952689E+01      20  121    1      -0.3247015985E+06      0.3850065251E+06      0.5406263723E+06      0.1939284030E+03
         14                 2           0            20  121     1       0.1315266860E+01      20  121    1      -0.2023405149E+06      0.2896500159E+06      0.3850065251E+06      0.1939284030E+03
          0                 3           2            20  121     1      -0.7294878790E+00      20  121    1      -0.1166877579E+06      0.2382206085E+06      0.2896500159E+06     -0.7294878790E+00
          0                 4           2            28   67     1       0.7039041129E-01      34   97    1      -0.1138671516E+05      0.1546470448E+05      0.2382206085E+06      0.7039041129E-01
          0                 5           2            28   67     1       0.7024629760E-01      34   97    1      -0.5693354762E+03      0.7731160620E+03      0.1546470448E+05      0.7024629760E-01

    ------------------------------------------------
       NWT REQUIRED            5 OUTER ITERATIONS 
       AND A TOTAL OF         10 INNER ITERATIONS.
    ------------------------------------------------

 OUTPUT CONTROL FOR STRESS PERIOD    1   TIME STEP  252
    SAVE HEAD FOR ALL LAYERS
    SAVE DRAWDOWN FOR ALL LAYERS
    SAVE BUDGET
    PRINT BUDGET
 UBDSV1 SAVING "         STORAGE" ON UNIT   9 AT TIME STEP252, STRESS PERIOD   1
 UBDSV2 SAVING "   CONSTANT HEAD" ON UNIT   9 AT TIME STEP252, STRESS PERIOD   1
 UBDSV1 SAVING "FLOW RIGHT FACE " ON UNIT   9 AT TIME STEP252, STRESS PERIOD   1
 UBDSV1 SAVING "FLOW FRONT FACE " ON UNIT   9 AT TIME STEP252, STRESS PERIOD   1
 UBDSV4 SAVING "   RIVER LEAKAGE" ON UNIT   9 AT TIME STEP252, STRESS PERIOD   1
 UBDSV3 SAVING "        RECHARGE" ON UNIT   9 AT TIME STEP252, STRESS PERIOD   1

 HEAD WILL BE SAVED ON UNIT   37 AT END OF TIME STEP  252, STRESS PERIOD    1

 DRAWDOWN WILL BE SAVED ON UNIT   38 AT END OF TIME STEP  252, STRESS PERIOD    1
1
  VOLUMETRIC BUDGET FOR ENTIRE MODEL AT END OF TIME STEP  252, STRESS PERIOD   1
  ------------------------------------------------------------------------------

     CUMULATIVE VOLUMES      L**3       RATES FOR THIS TIME STEP      L**3/T
     ------------------                 ------------------------

           IN:                                      IN:
           ---                                      ---
             STORAGE =   217939648.0000               STORAGE =      789846.3125
       CONSTANT HEAD =           0.0000         CONSTANT HEAD =           0.0000
       RIVER LEAKAGE =  1070010112.0000         RIVER LEAKAGE =     5396133.5000
            RECHARGE =      326956.2812              RECHARGE =       61512.8672

            TOTAL IN =  1288276736.0000              TOTAL IN =     6247493.0000

          OUT:                                     OUT:
          ----                                     ----
             STORAGE =  1278340992.0000               STORAGE =     6080223.0000
       CONSTANT HEAD =           0.0000         CONSTANT HEAD =           0.0000
       RIVER LEAKAGE =    10186171.0000         RIVER LEAKAGE =      167255.1875
            RECHARGE =           0.0000              RECHARGE =           0.0000

           TOTAL OUT =  1288527104.0000             TOTAL OUT =     6247478.0000

            IN - OUT =     -250368.0000              IN - OUT =          15.0000

 PERCENT DISCREPANCY =          -0.02     PERCENT DISCREPANCY =           0.00






         TIME SUMMARY AT END OF TIME STEP  252 IN STRESS PERIOD    1
                    SECONDS     MINUTES      HOURS       DAYS        YEARS
                    -----------------------------------------------------------
   TIME STEP LENGTH  86400.      1440.0      24.000      1.0000     2.73785E-03
 STRESS PERIOD TIME 2.17728E+07 3.62880E+05  6048.0      252.00     0.68994    
         TOTAL TIME 2.17728E+07 3.62880E+05  6048.0      252.00     0.68994    
1
 
 SOLVING FOR HEAD 
                                                   Max.-Head-Change                        Max.-Flux-Residual
  Residual-Control   Outer-Iter.   Inner-Iter.     Column Row Layer    Max.-Head-Change    Column Row Layer    Max.-Flux-Residual            L2-New               L2-Old           Solver-Max-Delh
          0                 1           2            20  121     1       0.1062134787E+01      34   98    1       0.6572812533E+06      0.1884905187E+07      0.3865578460E+02      0.1062134787E+01
          0                 2           2            20  121     1      -0.9172979782E-01      34   98    1      -0.6572850219E+05      0.1884948050E+06      0.1884905187E+07     -0.9172979782E-01
          0                 3           2            28   67     1       0.7010830175E-01      34   98    1      -0.3286426248E+04      0.9424764753E+04      0.1884948050E+06      0.7010830175E-01

    ------------------------------------------------
       NWT REQUIRED            3 OUTER ITERATIONS 
       AND A TOTAL OF          6 INNER ITERATIONS.
    ------------------------------------------------

 OUTPUT CONTROL FOR STRESS PERIOD    1   TIME STEP  253
    SAVE HEAD FOR ALL LAYERS
    SAVE DRAWDOWN FOR ALL LAYERS
    SAVE BUDGET
    PRINT BUDGET
 UBDSV1 SAVING "         STORAGE" ON UNIT   9 AT TIME STEP253, STRESS PERIOD   1
 UBDSV2 SAVING "   CONSTANT HEAD" ON UNIT   9 AT TIME STEP253, STRESS PERIOD   1
 UBDSV1 SAVING "FLOW RIGHT FACE " ON UNIT   9 AT TIME STEP253, STRESS PERIOD   1
 UBDSV1 SAVING "FLOW FRONT FACE " ON UNIT   9 AT TIME STEP253, STRESS PERIOD   1
 UBDSV4 SAVING "   RIVER LEAKAGE" ON UNIT   9 AT TIME STEP253, STRESS PERIOD   1
 UBDSV3 SAVING "        RECHARGE" ON UNIT   9 AT TIME STEP253, STRESS PERIOD   1

 HEAD WILL BE SAVED ON UNIT   37 AT END OF TIME STEP  253, STRESS PERIOD    1

 DRAWDOWN WILL BE SAVED ON UNIT   38 AT END OF TIME STEP  253, STRESS PERIOD    1
1
  VOLUMETRIC BUDGET FOR ENTIRE MODEL AT END OF TIME STEP  253, STRESS PERIOD   1
  ------------------------------------------------------------------------------

     CUMULATIVE VOLUMES      L**3       RATES FOR THIS TIME STEP      L**3/T
     ------------------                 ------------------------

           IN:                                      IN:
           ---                                      ---
             STORAGE =   218718688.0000               STORAGE =      779044.7500
       CONSTANT HEAD =           0.0000         CONSTANT HEAD =           0.0000
       RIVER LEAKAGE =  1079804032.0000         RIVER LEAKAGE =     9793978.0000
            RECHARGE =      395583.0625              RECHARGE =       68626.7734

            TOTAL IN =  1298918272.0000              TOTAL IN =    10641650.0000

          OUT:                                     OUT:
          ----                                     ----
             STORAGE =  1288834304.0000               STORAGE =    10493333.0000
       CONSTANT HEAD =           0.0000         CONSTANT HEAD =           0.0000
       RIVER LEAKAGE =    10339259.0000         RIVER LEAKAGE =      153088.3438
            RECHARGE =           0.0000              RECHARGE =           0.0000

           TOTAL OUT =  1299173504.0000             TOTAL OUT =    10646421.0000

            IN - OUT =     -255232.0000              IN - OUT =       -4771.0000

 PERCENT DISCREPANCY =          -0.02     PERCENT DISCREPANCY =          -0.04






         TIME SUMMARY AT END OF TIME STEP  253 IN STRESS PERIOD    1
                    SECONDS     MINUTES      HOURS       DAYS        YEARS
                    -----------------------------------------------------------
   TIME STEP LENGTH  86400.      1440.0      24.000      1.0000     2.73785E-03
 STRESS PERIOD TIME 2.18592E+07 3.64320E+05  6072.0      253.00     0.69268    
         TOTAL TIME 2.18592E+07 3.64320E+05  6072.0      253.00     0.69268    
1
 
 SOLVING FOR HEAD 
                                                   Max.-Head-Change                        Max.-Flux-Residual
  Residual-Control   Outer-Iter.   Inner-Iter.     Column Row Layer    Max.-Head-Change    Column Row Layer    Max.-Flux-Residual            L2-New               L2-Old           Solver-Max-Delh
          0                 1           2             8  124     1       0.1148607809E+02      12  125    1       0.4157191267E+06      0.1430915180E+07      0.4711449649E+03      0.1148607809E+02
          1                 1           0             8  124     1       0.8040254527E+01       7  125    1      -0.1073179522E+08      0.2515496340E+08      0.1430915180E+07      0.1148607809E+02
          2                 1           0             8  124     1       0.5628178073E+01       7  125    1      -0.7284387544E+07      0.1305703726E+08      0.2515496340E+08      0.1148607809E+02
          3                 1           0             8  124     1       0.3939724584E+01       7  125    1      -0.4871453056E+07      0.6763040235E+07      0.1305703726E+08      0.1148607809E+02
          4                 1           0             8  124     1       0.2757807162E+01       7  125    1      -0.3182420082E+07      0.3941091885E+07      0.6763040235E+07      0.1148607809E+02
          5                 1           0             8  124     1       0.1930464981E+01       7  125    1      -0.2000164867E+07      0.2515583602E+07      0.3941091885E+07      0.1148607809E+02
          6                 1           0             8  124     1       0.1351325463E+01       7  125    1      -0.1172619476E+07      0.1716153308E+07      0.2515583602E+07      0.1148607809E+02
          0                 2           2             8  124     1       0.1148584525E+02       7  125    1      -0.5933540026E+06      0.1379843959E+07      0.1716153308E+07      0.1148584525E+02
          1                 2           0             8  124     1       0.8040091536E+01       4  125    1      -0.8353112244E+07      0.2666470462E+08      0.1379843959E+07      0.1148584525E+02
          2                 2           0             8  124     1       0.5628063979E+01       4  125    1      -0.4968797697E+07      0.1373658223E+08      0.2666470462E+08      0.1148584525E+02
                                                   Max.-Head-Change                        Max.-Flux-Residual
  Residual-Control   Outer-Iter.   Inner-Iter.     Column Row Layer    Max.-Head-Change    Column Row Layer    Max.-Flux-Residual            L2-New               L2-Old           Solver-Max-Delh
          3                 2           0             8  124     1       0.3939644718E+01       4  125    1      -0.2599980537E+07      0.6552710580E+07      0.1373658223E+08      0.1148584525E+02
          4                 2           0             8  124     1       0.2757751256E+01      22  112    1      -0.1356228992E+07      0.2660832042E+07      0.6552710580E+07      0.1148584525E+02
          0                 3           2            34  104     1       0.6450154783E+03      22  112    1      -0.6666830457E+06      0.1345213740E+07      0.2660832042E+07      0.6450154783E+03
          1                 3           0            34  104     1       0.4515108271E+03      34  104    1      -0.1729561853E+09      0.1764403189E+09      0.1345213740E+07      0.6450154783E+03
          2                 3           0            34  104     1       0.3160575736E+03      34  104    1      -0.1210172375E+09      0.1228960211E+09      0.1764403189E+09      0.6450154783E+03
          3                 3           0            34  104     1       0.2212402977E+03      34  104    1      -0.8465997468E+08      0.8562444687E+08      0.1228960211E+09      0.6450154783E+03
          4                 3           0            34  104     1       0.1548682058E+03      34  104    1      -0.5920989112E+08      0.5971639209E+08      0.8562444687E+08      0.6450154783E+03
          5                 3           0            34  104     1       0.1084077422E+03      34  104    1      -0.4139483293E+08      0.4166900274E+08      0.5971639209E+08      0.6450154783E+03
          6                 3           0            34  104     1       0.7588541825E+02      34  104    1      -0.2892429241E+08      0.2907781107E+08      0.4166900274E+08      0.6450154783E+03
          7                 3           0            34  104     1       0.5311979187E+02      34  104    1      -0.2019491420E+08      0.2028814899E+08      0.2907781107E+08      0.6450154783E+03
                                                   Max.-Head-Change                        Max.-Flux-Residual
  Residual-Control   Outer-Iter.   Inner-Iter.     Column Row Layer    Max.-Head-Change    Column Row Layer    Max.-Flux-Residual            L2-New               L2-Old           Solver-Max-Delh
          8                 3           0            34  104     1       0.3718385368E+02      34  104    1      -0.1408434955E+08      0.1415943943E+08      0.2028814899E+08      0.6450154783E+03
          9                 3           0            34  104     1       0.2602869713E+02      34  104    1      -0.9807196881E+07      0.9897343841E+07      0.1415943943E+08      0.6450154783E+03
         10                 3           0            34  104     1       0.1822008768E+02      34  104    1      -0.6814009359E+07      0.6937783585E+07      0.9897343841E+07      0.6450154783E+03
         11                 3           0            34  104     1       0.1275406116E+02      34  104    1      -0.4718846632E+07      0.4895359711E+07      0.6937783585E+07      0.6450154783E+03
         12                 3           0            34  104     1       0.8927842659E+01      34  104    1      -0.3252232760E+07      0.3506201148E+07      0.4895359711E+07      0.6450154783E+03
         13                 3           0            34  104     1       0.6249489755E+01      34  104    1      -0.2225594307E+07      0.2586620733E+07      0.3506201148E+07      0.6450154783E+03
         14                 3           0            34  104     1       0.4374642754E+01      34  104    1      -0.1506936335E+07      0.2005748447E+07      0.2586620733E+07      0.6450154783E+03
         15                 3           0            34  104     1       0.3062249876E+01      34  104    1      -0.1003875765E+07      0.1664454833E+07      0.2005748447E+07      0.6450154783E+03
         16                 3           0            34  104     1       0.2143574876E+01      22  112    1      -0.6636761704E+06      0.1481475017E+07      0.1664454833E+07      0.6450154783E+03
          0                 4           2             8  124     1       0.1148536350E+02      22  112    1      -0.6645782329E+06      0.1392621093E+07      0.1481475017E+07      0.1148536350E+02
                                                   Max.-Head-Change                        Max.-Flux-Residual
  Residual-Control   Outer-Iter.   Inner-Iter.     Column Row Layer    Max.-Head-Change    Column Row Layer    Max.-Flux-Residual            L2-New               L2-Old           Solver-Max-Delh
          1                 4           0             8  124     1       0.8039754314E+01       8  124    1      -0.1080474651E+08      0.3502284385E+08      0.1392621093E+07      0.1148536350E+02
          2                 4           0             8  124     1       0.5627827924E+01       4  125    1      -0.7714516735E+07      0.2155230084E+08      0.3502284385E+08      0.1148536350E+02
          3                 4           0             8  124     1       0.3939479480E+01       4  125    1      -0.5345602728E+07      0.1294279515E+08      0.2155230084E+08      0.1148536350E+02
          4                 4           0             8  124     1       0.2757635589E+01       4  125    1      -0.3687462405E+07      0.7869011950E+07      0.1294279515E+08      0.1148536350E+02
          5                 4           0             8  124     1       0.1930344879E+01       4  125    1      -0.2526812931E+07      0.4872164150E+07      0.7869011950E+07      0.1148536350E+02
          6                 4           0             8  124     1       0.1351241392E+01       4  125    1      -0.1714382192E+07      0.3078694954E+07      0.4872164150E+07      0.1148536350E+02
          7                 4           0             8  124     1       0.9458689586E+00       4  125    1      -0.1145692385E+07      0.2035385949E+07      0.3078694954E+07      0.1148536350E+02
          8                 4           0             8  124     1       0.6621082598E+00       4  125    1      -0.7476152599E+06      0.1533259330E+07      0.2035385949E+07      0.1148536350E+02
          0                 5           2             8  124     1       0.1148524942E+02      22  112    1      -0.6281817542E+06      0.1395337889E+07      0.1533259330E+07      0.1148524942E+02
          1                 5           0             8  124     1       0.8039674460E+01       8  124    1      -0.1146695051E+08      0.3578548839E+08      0.1395337889E+07      0.1148524942E+02
                                                   Max.-Head-Change                        Max.-Flux-Residual
  Residual-Control   Outer-Iter.   Inner-Iter.     Column Row Layer    Max.-Head-Change    Column Row Layer    Max.-Flux-Residual            L2-New               L2-Old           Solver-Max-Delh
          2                 5           0             8  124     1       0.5627772026E+01       8  124    1      -0.8020427324E+07      0.2252213760E+08      0.3578548839E+08      0.1148524942E+02
          3                 5           0             8  124     1       0.3939440351E+01       8  124    1      -0.5607689472E+07      0.1389090969E+08      0.2252213760E+08      0.1148524942E+02
          4                 5           0             8  124     1       0.2757608199E+01       8  124    1      -0.3918693609E+07      0.8672945478E+07      0.1389090969E+08      0.1148524942E+02
          5                 5           0             8  124     1       0.1930325706E+01       8  124    1      -0.2736447407E+07      0.5659063548E+07      0.8672945478E+07      0.1148524942E+02
          6                 5           0             8  124     1       0.1351227971E+01       8  124    1      -0.1908900012E+07      0.3823553541E+07      0.5659063548E+07      0.1148524942E+02
          7                 5           0             8  124     1       0.9458595639E+00       8  124    1      -0.1329629061E+07      0.2725729481E+07      0.3823553541E+07      0.1148524942E+02
          8                 5           0             8  124     1       0.6621016834E+00       8  124    1      -0.9241453891E+06      0.2076439494E+07      0.2725729481E+07      0.1148524942E+02
          9                 5           0             8  124     1       0.4634711705E+00       8  124    1      -0.6403097566E+06      0.1704222433E+07      0.2076439494E+07      0.1148524942E+02
          0                 6           2             8  123     1       0.1148372335E+02      22  112    1      -0.6040992548E+06      0.1513871035E+07      0.1704222433E+07      0.1148372335E+02
          1                 6           0             8  123     1       0.8038606208E+01       6  125    1      -0.9177584996E+07      0.2932890828E+08      0.1513871035E+07      0.1148372335E+02
                                                   Max.-Head-Change                        Max.-Flux-Residual
  Residual-Control   Outer-Iter.   Inner-Iter.     Column Row Layer    Max.-Head-Change    Column Row Layer    Max.-Flux-Residual            L2-New               L2-Old           Solver-Max-Delh
          2                 6           0             8  123     1       0.5627024250E+01       6  125    1      -0.7300605238E+07      0.1768294087E+08      0.2932890828E+08      0.1148372335E+02
          3                 6           0             8  123     1       0.3938916908E+01       6  125    1      -0.4888107113E+07      0.9968691149E+07      0.1768294087E+08      0.1148372335E+02
          4                 6           0             8  123     1       0.2757241789E+01       6  125    1      -0.3199500238E+07      0.5367886558E+07      0.9968691149E+07      0.1148372335E+02
          5                 6           0             8  123     1       0.1930069219E+01       6  125    1      -0.2017461953E+07      0.2992083425E+07      0.5367886558E+07      0.1148372335E+02
          6                 6           0             8  123     1       0.1351048430E+01       6  125    1      -0.1190009881E+07      0.1882782661E+07      0.2992083425E+07      0.1148372335E+02
          0                 7           2             8  123     1       0.1148348780E+02       6  125    1      -0.6108079550E+06      0.1473726013E+07      0.1882782661E+07      0.1148348780E+02
          1                 7           0             8  123     1       0.8038441325E+01      10  123    1      -0.1000603119E+08      0.3176582095E+08      0.1473726013E+07      0.1148348780E+02
          2                 7           0             8  123     1       0.5626908832E+01       5  125    1      -0.7674788683E+07      0.1986311207E+08      0.3176582095E+08      0.1148348780E+02
          3                 7           0             8  123     1       0.3938836115E+01       5  125    1      -0.5356125763E+07      0.1207542827E+08      0.1986311207E+08      0.1148348780E+02
          4                 7           0             8  123     1       0.2757185234E+01       5  125    1      -0.3733189015E+07      0.7227141397E+07      0.1207542827E+08      0.1148348780E+02
                                                   Max.-Head-Change                        Max.-Flux-Residual
  Residual-Control   Outer-Iter.   Inner-Iter.     Column Row Layer    Max.-Head-Change    Column Row Layer    Max.-Flux-Residual            L2-New               L2-Old           Solver-Max-Delh
          5                 7           0             8  123     1       0.1930029631E+01       5  125    1      -0.2597195673E+07      0.4285351107E+07      0.7227141397E+07      0.1148348780E+02
          6                 7           0             8  123     1       0.1351020718E+01       5  125    1      -0.1802030904E+07      0.2688004846E+07      0.4285351107E+07      0.1148348780E+02
          7                 7           0             8  123     1       0.9457144868E+00       5  125    1      -0.1245430548E+07      0.1962139028E+07      0.2688004846E+07      0.1148348780E+02
          8                 7           0             8  123     1       0.6620001295E+00       5  125    1      -0.8558176424E+06      0.1648281533E+07      0.1962139028E+07      0.1148348780E+02
          0                 8           2            10  126     1       0.7959316546E+03       5  125    1      -0.5830922081E+06      0.1522376927E+07      0.1648281533E+07      0.7959316546E+03
          1                 8           0            10  126     1       0.5571521487E+03      10  126    1      -0.1588853768E+09      0.1621551679E+09      0.1522376927E+07      0.7959316546E+03
          2                 8           0            10  126     1       0.3900064975E+03      10  126    1      -0.1111638415E+09      0.1129403933E+09      0.1621551679E+09      0.7959316546E+03
          3                 8           0            10  126     1       0.2730045436E+03      10  126    1      -0.7775876739E+08      0.7873140069E+08      0.1129403933E+09      0.7959316546E+03
          4                 8           0            10  126     1       0.1911031773E+03      10  126    1      -0.5437521589E+08      0.5489808423E+08      0.7873140069E+08      0.7959316546E+03
          5                 8           0            10  126     1       0.1337722218E+03      10  126    1      -0.3800673012E+08      0.3828205033E+08      0.5489808423E+08      0.7959316546E+03
                                                   Max.-Head-Change                        Max.-Flux-Residual
  Residual-Control   Outer-Iter.   Inner-Iter.     Column Row Layer    Max.-Head-Change    Column Row Layer    Max.-Flux-Residual            L2-New               L2-Old           Solver-Max-Delh
          6                 8           0            10  126     1       0.9364055367E+02      10  126    1      -0.2654879028E+08      0.2669827964E+08      0.3828205033E+08      0.7959316546E+03
          7                 8           0            10  126     1       0.6554838645E+02      10  126    1      -0.1852823252E+08      0.1862834451E+08      0.2669827964E+08      0.7959316546E+03
          8                 8           0            10  126     1       0.4588386973E+02      10  126    1      -0.1291384219E+08      0.1301205105E+08      0.1862834451E+08      0.7959316546E+03
          9                 8           0            10  126     1       0.3211870827E+02      10  126    1      -0.8983769027E+07      0.9107684613E+07      0.1301205105E+08      0.7959316546E+03
         10                 8           0            10  126     1       0.2248309540E+02      10  126    1      -0.6232717858E+07      0.6404895811E+07      0.9107684613E+07      0.7959316546E+03
         11                 8           0            10  126     1       0.1573816651E+02      10  126    1      -0.4307342191E+07      0.4553540609E+07      0.6404895811E+07      0.7959316546E+03
         12                 8           0            10  126     1       0.1101671637E+02      10  126    1      -0.2959662085E+07      0.3311271800E+07      0.4553540609E+07      0.7959316546E+03
         13                 8           0            10  126     1       0.7711701329E+01      10  126    1      -0.2016286029E+07      0.2508818582E+07      0.3311271800E+07      0.7959316546E+03
         14                 8           0            10  126     1       0.5398190839E+01      10  126    1      -0.1355991702E+07      0.2021340309E+07      0.2508818582E+07      0.7959316546E+03
         15                 8           0            10  126     1       0.3778733523E+01      10  126    1      -0.8939083146E+06      0.1749021331E+07      0.2021340309E+07      0.7959316546E+03
                                                   Max.-Head-Change                        Max.-Flux-Residual
  Residual-Control   Outer-Iter.   Inner-Iter.     Column Row Layer    Max.-Head-Change    Column Row Layer    Max.-Flux-Residual            L2-New               L2-Old           Solver-Max-Delh
          0                 9           2             8  123     1       0.1148336306E+02       5  125    1      -0.5804623560E+06      0.1610737986E+07      0.1749021331E+07      0.1148336306E+02
          1                 9           0             8  123     1       0.8038354005E+01      10  123    1      -0.1072144078E+08      0.3256677656E+08      0.1610737986E+07      0.1148336306E+02
          2                 9           0             8  123     1       0.5626847708E+01      10  123    1      -0.7281134882E+07      0.2013772578E+08      0.3256677656E+08      0.1148336306E+02
          3                 9           0             8  123     1       0.3938793328E+01      10  123    1      -0.4873047884E+07      0.1250526782E+08      0.2013772578E+08      0.1148336306E+02
          4                 9           0             8  123     1       0.2757155283E+01      10  123    1      -0.3187428645E+07      0.7714422492E+07      0.1250526782E+08      0.1148336306E+02
          5                 9           0             8  123     1       0.1930008665E+01      10  123    1      -0.2007563086E+07      0.4731125330E+07      0.7714422492E+07      0.1148336306E+02
          6                 9           0             8  123     1       0.1351006043E+01      10  123    1      -0.1181690475E+07      0.2964835955E+07      0.4731125330E+07      0.1148336306E+02
          7                 9           0             8  123     1       0.9457042137E+00      21  111    1      -0.7319612340E+06      0.2055213521E+07      0.2964835955E+07      0.1148336306E+02
          0                10           2             8  123     1       0.1148319852E+02       5  125    1      -0.5350485257E+06      0.1711027803E+07      0.2055213521E+07      0.1148319852E+02
          1                10           0             8  123     1       0.8038238826E+01       6  124    1      -0.9923495054E+07      0.2938108930E+08      0.1711027803E+07      0.1148319852E+02
                                                   Max.-Head-Change                        Max.-Flux-Residual
  Residual-Control   Outer-Iter.   Inner-Iter.     Column Row Layer    Max.-Head-Change    Column Row Layer    Max.-Flux-Residual            L2-New               L2-Old           Solver-Max-Delh
          2                10           0             8  123     1       0.5626767082E+01       6  124    1      -0.7588173670E+07      0.1871231929E+08      0.2938108930E+08      0.1148319852E+02
          3                10           0             8  123     1       0.3938736891E+01       6  124    1      -0.5216237443E+07      0.1166999565E+08      0.1871231929E+08      0.1148319852E+02
          4                10           0             8  123     1       0.2757115776E+01       6  124    1      -0.3555934684E+07      0.7360602758E+07      0.1166999565E+08      0.1148319852E+02
          5                10           0             8  123     1       0.1929981011E+01       6  124    1      -0.2393771916E+07      0.4755617513E+07      0.7360602758E+07      0.1148319852E+02
          6                10           0             8  123     1       0.1350986684E+01       6  124    1      -0.1580282074E+07      0.3182543936E+07      0.4755617513E+07      0.1148319852E+02
          7                10           0             8  123     1       0.9456906630E+00       6  124    1      -0.1010850994E+07      0.2322788490E+07      0.3182543936E+07      0.1148319852E+02
          8                10           0             8  123     1       0.6619834528E+00       6  124    1      -0.6122550267E+06      0.1889996973E+07      0.2322788490E+07      0.1148319852E+02
          0                11           2            37   48     1       0.1152613384E+03       5  125    1      -0.5057456684E+06      0.1714474200E+07      0.1889996973E+07      0.1152613384E+03
          1                11           0            37   48     1       0.8068293554E+02       9  124    1      -0.8642690001E+07      0.2483972185E+08      0.1714474200E+07      0.1152613384E+03
          2                11           0            37   48     1       0.5647805391E+02       9  124    1      -0.6973319706E+07      0.1543562046E+08      0.2483972185E+08      0.1152613384E+03
                                                   Max.-Head-Change                        Max.-Flux-Residual
  Residual-Control   Outer-Iter.   Inner-Iter.     Column Row Layer    Max.-Head-Change    Column Row Layer    Max.-Flux-Residual            L2-New               L2-Old           Solver-Max-Delh
          3                11           0            37   48     1       0.3953463707E+02       9  124    1      -0.4600167428E+07      0.9068706065E+07      0.1543562046E+08      0.1152613384E+03
          4                11           0            37   48     1       0.2767424547E+02       9  124    1      -0.2938952037E+07      0.5479735081E+07      0.9068706065E+07      0.1152613384E+03
          5                11           0            37   48     1       0.1937197150E+02       9  124    1      -0.1776139774E+07      0.3420964363E+07      0.5479735081E+07      0.1152613384E+03
          6                11           0            37   48     1       0.1356037982E+02      21  115    1      -0.9878211249E+06      0.2353383229E+07      0.3420964363E+07      0.1152613384E+03
          0                12           2            37   48     1      -0.1240094424E+02      21  115    1      -0.6524569744E+06      0.1855670686E+07      0.2353383229E+07     -0.1240094424E+02
          1                12           0            37   48     1      -0.8680660824E+01       8  123    1      -0.9512900033E+07      0.2344994929E+08      0.1855670686E+07     -0.1240094424E+02
          2                12           0            37   48     1      -0.6076462473E+01       7  124    1      -0.6532111494E+07      0.1467585832E+08      0.2344994929E+08     -0.1240094424E+02
          3                12           0            37   48     1      -0.4253523659E+01       7  124    1      -0.4155833240E+07      0.8283812030E+07      0.1467585832E+08     -0.1240094424E+02
          4                12           0            37   48     1      -0.2977466510E+01       7  124    1      -0.2492475758E+07      0.4836019917E+07      0.8283812030E+07     -0.1240094424E+02
          5                12           0            37   48     1      -0.2084226522E+01      20  112    1      -0.1375100497E+07      0.3020988286E+07      0.4836019917E+07     -0.1240094424E+02
                                                   Max.-Head-Change                        Max.-Flux-Residual
  Residual-Control   Outer-Iter.   Inner-Iter.     Column Row Layer    Max.-Head-Change    Column Row Layer    Max.-Flux-Residual            L2-New               L2-Old           Solver-Max-Delh
          6                12           0            37   48     1      -0.1458958540E+01      20  112    1      -0.9096876285E+06      0.2078065076E+07      0.3020988286E+07     -0.1240094424E+02
          0                13           2             9  122     1       0.1148266064E+02      20  112    1      -0.5839023950E+06      0.1806278137E+07      0.2078065076E+07      0.1148266064E+02
          1                13           0             9  122     1       0.8037862309E+01       8  123    1      -0.9512895383E+07      0.2305686029E+08      0.1806278137E+07      0.1148266064E+02
          2                13           0             9  122     1       0.5626503520E+01       8  123    1      -0.7703677903E+07      0.1602374983E+08      0.2305686029E+08      0.1148266064E+02
          3                13           0             9  122     1       0.3938552397E+01       7  124    1      -0.5496427753E+07      0.9990296377E+07      0.1602374983E+08      0.1148266064E+02
          4                13           0             9  122     1       0.2756986631E+01       7  124    1      -0.3830272743E+07      0.6015886733E+07      0.9990296377E+07      0.1148266064E+02
          5                13           0             9  122     1       0.1929890609E+01       7  124    1      -0.2663952928E+07      0.3934565547E+07      0.6015886733E+07      0.1148266064E+02
          6                13           0             9  122     1       0.1350923403E+01       7  124    1      -0.1847519305E+07      0.2874238238E+07      0.3934565547E+07      0.1148266064E+02
          7                13           0             9  122     1       0.9456463661E+00       7  124    1      -0.1276031700E+07      0.2285828448E+07      0.2874238238E+07      0.1148266064E+02
          0                14           2             9  122     1       0.1148251636E+02       7  124    1      -0.8759981838E+06      0.1976305200E+07      0.2285828448E+07      0.1148251636E+02
                                                   Max.-Head-Change                        Max.-Flux-Residual
  Residual-Control   Outer-Iter.   Inner-Iter.     Column Row Layer    Max.-Head-Change    Column Row Layer    Max.-Flux-Residual            L2-New               L2-Old           Solver-Max-Delh
          1                14           0             9  122     1       0.8037761316E+01       9  122    1      -0.9872712103E+07      0.2158713910E+08      0.1976305200E+07      0.1148251636E+02
          2                14           0             9  122     1       0.5626432825E+01       9  122    1      -0.6779977012E+07      0.1451538586E+08      0.2158713910E+08      0.1148251636E+02
          3                14           0             9  122     1       0.3938502911E+01       9  122    1      -0.4367714287E+07      0.8614696255E+07      0.1451538586E+08      0.1148251636E+02
          4                14           0             9  122     1       0.2756951991E+01       9  122    1      -0.2679223449E+07      0.4800608561E+07      0.8614696255E+07      0.1148251636E+02
          5                14           0             9  122     1       0.1929866360E+01       9  122    1      -0.1497325473E+07      0.2653536762E+07      0.4800608561E+07      0.1148251636E+02
          0                15           2             7  123     1       0.1148139160E+02       7  124    1      -0.7361310073E+06      0.1891803799E+07      0.2653536762E+07      0.1148139160E+02
          1                15           0             7  123     1       0.8036973980E+01       8  122    1      -0.9075406461E+07      0.1916918392E+08      0.1891803799E+07      0.1148139160E+02
          2                15           0             7  123     1       0.5625881690E+01       8  122    1      -0.7309328233E+07      0.1379136063E+08      0.1916918392E+08      0.1148139160E+02
          3                15           0             7  123     1       0.3938117116E+01       7  123    1      -0.5081577357E+07      0.9260892484E+07      0.1379136063E+08      0.1148139160E+02
          4                15           0             7  123     1       0.2756681934E+01       7  123    1      -0.3392946796E+07      0.6068132365E+07      0.9260892484E+07      0.1148139160E+02
                                                   Max.-Head-Change                        Max.-Flux-Residual
  Residual-Control   Outer-Iter.   Inner-Iter.     Column Row Layer    Max.-Head-Change    Column Row Layer    Max.-Flux-Residual            L2-New               L2-Old           Solver-Max-Delh
          5                15           0             7  123     1       0.1929677321E+01       7  123    1      -0.2210978442E+07      0.4002838657E+07      0.6068132365E+07      0.1148139160E+02
          6                15           0             7  123     1       0.1350774102E+01       7  123    1      -0.1383636388E+07      0.2757965824E+07      0.4002838657E+07      0.1148139160E+02
          7                15           0             7  123     1       0.9455418552E+00       7  123    1      -0.8045144915E+06      0.2103701682E+07      0.2757965824E+07      0.1148139160E+02
          0                16           2             8  121     1       0.1068892314E+02       7  124    1      -0.6784853684E+06      0.1852134686E+07      0.2103701682E+07      0.1068892314E+02
          1                16           0             8  121     1       0.7482246069E+01      10  122    1      -0.7656312329E+07      0.1488844833E+08      0.1852134686E+07      0.1068892314E+02
          2                16           0             8  121     1       0.5237572159E+01      10  122    1      -0.5347958013E+07      0.9336793665E+07      0.1488844833E+08      0.1068892314E+02
          3                16           0             8  121     1       0.3666300449E+01      10  122    1      -0.3732262695E+07      0.5884875258E+07      0.9336793665E+07      0.1068892314E+02
          4                16           0             8  121     1       0.2566410271E+01      10  122    1      -0.2601350804E+07      0.3890927575E+07      0.5884875258E+07      0.1068892314E+02
          5                16           0             8  121     1       0.1796487159E+01      10  122    1      -0.1809749152E+07      0.2756673731E+07      0.3890927575E+07      0.1068892314E+02
          6                16           0             8  121     1       0.1257540990E+01      10  122    1      -0.1255645967E+07      0.2166190610E+07      0.2756673731E+07      0.1068892314E+02
                                                   Max.-Head-Change                        Max.-Flux-Residual
  Residual-Control   Outer-Iter.   Inner-Iter.     Column Row Layer    Max.-Head-Change    Column Row Layer    Max.-Flux-Residual            L2-New               L2-Old           Solver-Max-Delh
          0                17           2             8  121     1       0.1070189980E+02      10  122    1      -0.8677830602E+06      0.1912029439E+07      0.2166190610E+07      0.1070189980E+02
          1                17           0             8  121     1       0.7491329735E+01       8  121    1      -0.7957320110E+07      0.1146057112E+08      0.1912029439E+07      0.1070189980E+02
          2                17           0             8  121     1       0.5243930725E+01       8  121    1      -0.4744898899E+07      0.6934008274E+07      0.1146057112E+08      0.1070189980E+02
          3                17           0             8  121     1       0.3670751445E+01      22  108    1      -0.2865276704E+07      0.4076578254E+07      0.6934008274E+07      0.1070189980E+02
          4                17           0             8  121     1       0.2569525968E+01      22  108    1      -0.1878696045E+07      0.2487512733E+07      0.4076578254E+07      0.1070189980E+02
          0                18           2             8  121     1       0.1080582304E+02      22  108    1      -0.1188113004E+07      0.1893833887E+07      0.2487512733E+07      0.1080582304E+02
          1                18           0             8  121     1       0.7564076002E+01       8  121    1      -0.8353427235E+07      0.1161464426E+08      0.1893833887E+07      0.1080582304E+02
          2                18           0             8  121     1       0.5294853111E+01       8  121    1      -0.7388664676E+07      0.8926233761E+07      0.1161464426E+08      0.1080582304E+02
          3                18           0             8  121     1       0.3706397115E+01       8  121    1      -0.5118143303E+07      0.5971376185E+07      0.8926233761E+07      0.1080582304E+02
          4                18           0             8  121     1       0.2594477936E+01       8  121    1      -0.3528880159E+07      0.4105945636E+07      0.5971376185E+07      0.1080582304E+02
                                                   Max.-Head-Change                        Max.-Flux-Residual
  Residual-Control   Outer-Iter.   Inner-Iter.     Column Row Layer    Max.-Head-Change    Column Row Layer    Max.-Flux-Residual            L2-New               L2-Old           Solver-Max-Delh
          5                18           0             8  121     1       0.1816134524E+01       8  121    1      -0.2416445854E+07      0.3000227302E+07      0.4105945636E+07      0.1080582304E+02
          6                18           0             8  121     1       0.1271294145E+01       8  121    1      -0.1637766294E+07      0.2382293078E+07      0.3000227302E+07      0.1080582304E+02
          0                19           2             9  121     1       0.7014531696E+01       8  121    1      -0.1092702586E+07      0.2056177123E+07      0.2382293078E+07      0.7014531696E+01
          1                19           0             9  121     1       0.4910172103E+01      21  108    1      -0.5122948623E+07      0.7930426556E+07      0.2056177123E+07      0.7014531696E+01
          2                19           0             9  121     1       0.3437120414E+01      19  111    1      -0.3392961991E+07      0.5053256442E+07      0.7930426556E+07      0.7014531696E+01
          3                19           0             9  121     1       0.2405984249E+01      19  111    1      -0.2211675985E+07      0.3244585859E+07      0.5053256442E+07      0.7014531696E+01
          0                20           2             9  121     1       0.7168808828E+01      19  111    1      -0.1384817794E+07      0.2209702460E+07      0.3244585859E+07      0.7168808828E+01
          1                20           0             9  121     1       0.5018166094E+01       9  121    1      -0.3733859257E+07      0.4479914307E+07      0.2209702460E+07      0.7168808828E+01
          0                21           2            32  112     1       0.2863171580E+02       9  121    1      -0.1581880145E+07      0.1934982089E+07      0.4479914307E+07      0.2863171580E+02
          1                21           0            32  112     1       0.2004220072E+02      32  112    1      -0.8955285421E+07      0.9314234332E+07      0.1934982089E+07      0.2863171580E+02
                                                   Max.-Head-Change                        Max.-Flux-Residual
  Residual-Control   Outer-Iter.   Inner-Iter.     Column Row Layer    Max.-Head-Change    Column Row Layer    Max.-Flux-Residual            L2-New               L2-Old           Solver-Max-Delh
          2                21           0            32  112     1       0.1402954026E+02      32  112    1      -0.6257678034E+07      0.6464948329E+07      0.9314234332E+07      0.2863171580E+02
          3                21           0            32  112     1       0.9820678018E+01      32  112    1      -0.4369352904E+07      0.4588070609E+07      0.6464948329E+07      0.2863171580E+02
          4                21           0            32  112     1       0.6874474496E+01      32  112    1      -0.3047525338E+07      0.3369340389E+07      0.4588070609E+07      0.2863171580E+02
          5                21           0            32  112     1       0.4812132065E+01      32  112    1      -0.2122274335E+07      0.2628070555E+07      0.3369340389E+07      0.2863171580E+02
          6                21           0            32  112     1       0.3368492388E+01      32  112    1      -0.1474600907E+07      0.2213618676E+07      0.2628070555E+07      0.2863171580E+02
          0                22           2            21  107     1       0.5675744327E+01       9  121    1      -0.1405079639E+07      0.2008779811E+07      0.2213618676E+07      0.5675744327E+01
          1                22           0            21  107     1       0.3973020961E+01      21  107    1      -0.1789194367E+07      0.2489764343E+07      0.2008779811E+07      0.5675744327E+01
          0                23           2            22  106     1       0.2762506226E+01      19  114    1      -0.1081781597E+07      0.1277117076E+07      0.2489764343E+07      0.2762506226E+01
          0                24           2            22  106     1       0.2762350513E+01      29   96    1      -0.9354871857E+06      0.1034829250E+07      0.1277117076E+07      0.2762350513E+01
          0                25           2            22  106     1       0.2762197912E+01      29   96    1      -0.4679061442E+05      0.8450865077E+05      0.1034829250E+07      0.2762197912E+01
                                                   Max.-Head-Change                        Max.-Flux-Residual
  Residual-Control   Outer-Iter.   Inner-Iter.     Column Row Layer    Max.-Head-Change    Column Row Layer    Max.-Flux-Residual            L2-New               L2-Old           Solver-Max-Delh
          0                26           2            36   60     1       0.8521059753E+00      22  106    1      -0.3268750951E+05      0.3296000250E+05      0.8450865077E+05      0.8521059753E+00
          0                27           2            36   60     1       0.8520334015E+00      38   63    1      -0.3338188010E+05      0.3342284981E+05      0.3296000250E+05      0.8520334015E+00
          0                28           2            36   60     1       0.8519608462E+00      40   59    1      -0.2190098928E+05      0.2196520815E+05      0.3342284981E+05      0.8519608462E+00
          1                28           0            36   60     1       0.5963725822E+00      25  108    1      -0.1311077461E+06      0.1320640014E+06      0.2196520815E+05      0.8519608462E+00
          0                29           2            36   60     1       0.8519100692E+00      40   59    1      -0.7337044287E+04      0.7359823646E+04      0.1320640014E+06      0.8519100692E+00
          1                29           0            36   60     1       0.5963370383E+00      25  108    1      -0.5024039198E+06      0.5080522319E+06      0.7359823646E+04      0.8519100692E+00
          2                29           0            36   60     1       0.4174359197E+00      25  108    1      -0.3432754889E+06      0.3468964686E+06      0.5080522319E+06      0.8519100692E+00
          3                29           0            36   60     1       0.2922051388E+00      25  108    1      -0.2318863492E+06      0.2341202503E+06      0.3468964686E+06      0.8519100692E+00
          4                29           0            36   60     1       0.2045435937E+00      25  108    1      -0.1539143251E+06      0.1552227497E+06      0.2341202503E+06      0.8519100692E+00
          5                29           0            36   60     1       0.1431805131E+00      25  108    1      -0.9933409169E+05      0.1000718857E+06      0.1552227497E+06      0.8519100692E+00
                                                   Max.-Head-Change                        Max.-Flux-Residual
  Residual-Control   Outer-Iter.   Inner-Iter.     Column Row Layer    Max.-Head-Change    Column Row Layer    Max.-Flux-Residual            L2-New               L2-Old           Solver-Max-Delh
          6                29           0            36   60     1       0.1002263575E+00      25  108    1      -0.6112801837E+05      0.6161021958E+05      0.1000718857E+06      0.8519100692E+00
          7                29           0            36   60     1       0.7015844905E-01      25  108    1      -0.3438381131E+05      0.3500086582E+05      0.6161021958E+05      0.8519100692E+00
          8                29           0            36   60     1       0.4911091350E-01      25  108    1      -0.1566288816E+05      0.1706897538E+05      0.3500086582E+05      0.8519100692E+00
          0                30           2            36   60     1       0.8519058880E+00      40   59    1      -0.6935222569E+04      0.7412222101E+04      0.1706897538E+05      0.8519058880E+00
          1                30           0            36   60     1       0.5963341115E+00      39   61    1      -0.8042663001E+05      0.8049406247E+05      0.7412222101E+04      0.8519058880E+00
          2                30           0            36   60     1       0.4174338709E+00      39   61    1      -0.5484518283E+05      0.5490151204E+05      0.8049406247E+05      0.8519058880E+00
          3                30           0            36   60     1       0.2922037047E+00      39   61    1      -0.3693894891E+05      0.3715097488E+05      0.5490151204E+05      0.8519058880E+00
          4                30           0            36   60     1       0.2045425898E+00      39   61    1      -0.2440496699E+05      0.2491147650E+05      0.3715097488E+05      0.8519058880E+00
          5                30           0            36   60     1       0.1431798104E+00      39   61    1      -0.1563136678E+05      0.1664580173E+05      0.2491147650E+05      0.8519058880E+00
          6                30           0            36   60     1       0.1002258656E+00      39   61    1      -0.9489938369E+04      0.1135170872E+05      0.1664580173E+05      0.8519058880E+00
                                                   Max.-Head-Change                        Max.-Flux-Residual
  Residual-Control   Outer-Iter.   Inner-Iter.     Column Row Layer    Max.-Head-Change    Column Row Layer    Max.-Flux-Residual            L2-New               L2-Old           Solver-Max-Delh
          7                30           0            36   60     1       0.7015810471E-01      40   59    1      -0.6160081030E+04      0.8384283409E+04      0.1135170872E+05      0.8519058880E+00
          0                31           2            36   60     1       0.8518999150E+00      40   59    1      -0.6392623373E+04      0.7172385667E+04      0.8384283409E+04      0.8518999150E+00
          0                32           2            36   60     1       0.8518273939E+00      27  108    1      -0.4966175687E+04      0.6826586917E+04      0.7172385667E+04      0.8518273939E+00
          1                32           0            36   60     1       0.5962791655E+00      23  107    1      -0.3652828286E+06      0.4492954850E+06      0.6826586917E+04      0.8518273939E+00
          2                32           0            36   60     1       0.4173954088E+00      23  107    1      -0.1727522343E+06      0.1927141760E+06      0.4492954850E+06      0.8518273939E+00
          3                32           0            36   60     1       0.2921767812E+00      23  107    1      -0.3798192152E+05      0.4535638566E+05      0.1927141760E+06      0.8518273939E+00
          4                32           0            36   60     1       0.2045237433E+00      40   60    1      -0.1198682401E+05      0.1284029347E+05      0.4535638566E+05      0.8518273939E+00
          0                33           2            36   60     1       0.8518099848E+00      27  108    1      -0.3833417154E+04      0.6172584095E+04      0.1284029347E+05      0.8518099848E+00
          1                33           0            36   60     1       0.5962669792E+00      23  107    1      -0.5193662668E+06      0.6527931436E+06      0.6172584095E+04      0.8518099848E+00
          2                33           0            36   60     1       0.4173868784E+00      23  107    1      -0.3268361508E+06      0.3922985550E+06      0.6527931436E+06      0.8518099848E+00
                                                   Max.-Head-Change                        Max.-Flux-Residual
  Residual-Control   Outer-Iter.   Inner-Iter.     Column Row Layer    Max.-Head-Change    Column Row Layer    Max.-Flux-Residual            L2-New               L2-Old           Solver-Max-Delh
          3                33           0            36   60     1       0.2921708099E+00      23  107    1      -0.1920661729E+06      0.2129909369E+06      0.3922985550E+06      0.8518099848E+00
          4                33           0            36   60     1       0.2045195634E+00      23  107    1      -0.9772772933E+05      0.9792140020E+05      0.2129909369E+06      0.8518099848E+00
          5                33           0            36   60     1       0.1431636920E+00      23  107    1      -0.3169108431E+05      0.3204731415E+05      0.9792140020E+05      0.8518099848E+00
          0                34           2            36   60     1       0.8517977992E+00      27  108    1      -0.3221343324E+04      0.5187513868E+04      0.3204731415E+05      0.8517977992E+00
          1                34           0            36   60     1       0.5962584493E+00      23  107    1      -0.6272242793E+06      0.7993169614E+06      0.5187513868E+04      0.8517977992E+00
          2                34           0            36   60     1       0.4173809074E+00      23  107    1      -0.4346944982E+06      0.5379869529E+06      0.7993169614E+06      0.8517977992E+00
          3                34           0            36   60     1       0.2921666302E+00      23  107    1      -0.2999247546E+06      0.3561324924E+06      0.5379869529E+06      0.8517977992E+00
          4                34           0            36   60     1       0.2045166377E+00      23  107    1      -0.2055864751E+06      0.2306660560E+06      0.3561324924E+06      0.8517977992E+00
          5                34           0            36   60     1       0.1431616439E+00      23  107    1      -0.1395499449E+06      0.1461718924E+06      0.2306660560E+06      0.8517977992E+00
          6                34           0            36   60     1       0.1002131490E+00      23  107    1      -0.9332450410E+05      0.9342735799E+05      0.1461718924E+06      0.8517977992E+00
                                                   Max.-Head-Change                        Max.-Flux-Residual
  Residual-Control   Outer-Iter.   Inner-Iter.     Column Row Layer    Max.-Head-Change    Column Row Layer    Max.-Flux-Residual            L2-New               L2-Old           Solver-Max-Delh
          7                34           0            36   60     1       0.7014920313E-01      23  107    1      -0.6096675954E+05      0.6114063716E+05      0.9342735799E+05      0.8517977992E+00
          8                34           0            36   60     1       0.4910444136E-01      23  107    1      -0.3831636983E+05      0.3861357008E+05      0.6114063716E+05      0.8517977992E+00
          9                34           0            36   60     1       0.3437310836E-01      23  107    1      -0.2246111255E+05      0.2299007458E+05      0.3861357008E+05      0.8517977992E+00
         10                34           0            36   60     1       0.2406117545E-01      23  107    1      -0.1136244010E+05      0.1240925113E+05      0.2299007458E+05      0.8517977992E+00
         11                34           0            36   60     1       0.1684282253E-01      23  107    1      -0.3593373180E+04      0.6196387489E+04      0.1240925113E+05      0.8517977992E+00
          0                35           2            36   60     1       0.8517963656E+00      27  108    1      -0.3160830503E+04      0.5090130201E+04      0.6196387489E+04      0.8517963656E+00
          1                35           0            36   60     1       0.5962574458E+00      23  107    1      -0.6399136131E+06      0.8165685928E+06      0.5090130201E+04      0.8517963656E+00
          2                35           0            36   60     1       0.4173802049E+00      23  107    1      -0.4473838714E+06      0.5551755095E+06      0.8165685928E+06      0.8517963656E+00
          3                35           0            36   60     1       0.2921661385E+00      23  107    1      -0.3126141554E+06      0.3731748045E+06      0.5551755095E+06      0.8517963656E+00
          4                35           0            36   60     1       0.2045162935E+00      23  107    1      -0.2182758952E+06      0.2473526266E+06      0.3731748045E+06      0.8517963656E+00
                                                   Max.-Head-Change                        Max.-Flux-Residual
  Residual-Control   Outer-Iter.   Inner-Iter.     Column Row Layer    Max.-Head-Change    Column Row Layer    Max.-Flux-Residual            L2-New               L2-Old           Solver-Max-Delh
          5                35           0            36   60     1       0.1431614030E+00      23  107    1      -0.1522393785E+06      0.1619440880E+06      0.2473526266E+06      0.8517963656E+00
          6                35           0            36   60     1       0.1002129804E+00      23  107    1      -0.1060139471E+06      0.1068014560E+06      0.1619440880E+06      0.8517963656E+00
          7                35           0            36   60     1       0.7014908507E-01      23  107    1      -0.7365620921E+05      0.7379484678E+05      0.1068014560E+06      0.8517963656E+00
          8                35           0            36   60     1       0.4910435871E-01      23  107    1      -0.5100582413E+05      0.5122116171E+05      0.7379484678E+05      0.8517963656E+00
          9                35           0            36   60     1       0.3437305051E-01      23  107    1      -0.3515057009E+05      0.3547830809E+05      0.5122116171E+05      0.8517963656E+00
         10                35           0            36   60     1       0.2406113495E-01      23  107    1      -0.2405189991E+05      0.2454491370E+05      0.3547830809E+05      0.8517963656E+00
         11                35           0            36   60     1       0.1684279418E-01      23  107    1      -0.1628283458E+05      0.1701956901E+05      0.2454491370E+05      0.8517963656E+00
         12                35           0            36   60     1       0.1178995572E-01      23  107    1      -0.1084449073E+05      0.1193923702E+05      0.1701956901E+05      0.8517963656E+00
         13                35           0            36   60     1       0.8252968866E-02      23  107    1      -0.7037650985E+04      0.8646276421E+04      0.1193923702E+05      0.8517963656E+00
         14                35           0            36   60     1       0.5777078108E-02      23  107    1      -0.4372863636E+04      0.6674840519E+04      0.8646276421E+04      0.8517963656E+00
                                                   Max.-Head-Change                        Max.-Flux-Residual
  Residual-Control   Outer-Iter.   Inner-Iter.     Column Row Layer    Max.-Head-Change    Column Row Layer    Max.-Flux-Residual            L2-New               L2-Old           Solver-Max-Delh
         15                35           0            36   60     1       0.4043954607E-02      27  108    1      -0.3140464292E+04      0.5644559924E+04      0.6674840519E+04      0.8517963656E+00
          0                36           2            36   60     1       0.8517960214E+00      27  108    1      -0.3146574155E+04      0.5207420714E+04      0.5644559924E+04      0.8517960214E+00
          1                36           0            36   60     1       0.5962572048E+00      19  115    1      -0.5100671425E+06      0.5100672382E+06      0.5207420714E+04      0.8517960214E+00
          2                36           0            36   60     1       0.4173800363E+00      19  115    1      -0.3315566587E+06      0.3315612735E+06      0.5100672382E+06      0.8517960214E+00
          3                36           0            36   60     1       0.2921660204E+00      19  115    1      -0.2066002689E+06      0.2066190404E+06      0.3315612735E+06      0.8517960214E+00
          4                36           0            36   60     1       0.2045162108E+00      19  115    1      -0.1191312616E+06      0.1191829977E+06      0.2066190404E+06      0.8517960214E+00
          5                36           0            36   60     1       0.1431613451E+00      19  115    1      -0.5790318481E+05      0.5804256087E+05      0.1191829977E+06      0.8517960214E+00
          6                36           0            36   60     1       0.1002129399E+00      19  115    1      -0.1504364320E+05      0.1566720265E+05      0.5804256087E+05      0.8517960214E+00
          0                37           2            36   60     1       0.8517874919E+00      27  108    1      -0.2794878249E+04      0.4625702251E+04      0.1566720265E+05      0.8517874919E+00
          1                37           0            36   60     1       0.5962512342E+00      19  115    1      -0.5800710423E+06      0.5800711190E+06      0.4625702251E+04      0.8517874919E+00
                                                   Max.-Head-Change                        Max.-Flux-Residual
  Residual-Control   Outer-Iter.   Inner-Iter.     Column Row Layer    Max.-Head-Change    Column Row Layer    Max.-Flux-Residual            L2-New               L2-Old           Solver-Max-Delh
          2                37           0            36   60     1       0.4173758568E+00      19  115    1      -0.4015604717E+06      0.4015634874E+06      0.5800711190E+06      0.8517874919E+00
          3                37           0            36   60     1       0.2921630948E+00      19  115    1      -0.2766040213E+06      0.2766150928E+06      0.4015634874E+06      0.8517874919E+00
          4                37           0            36   60     1       0.2045141629E+00      19  115    1      -0.1891349714E+06      0.1891606955E+06      0.2766150928E+06      0.8517874919E+00
          5                37           0            36   60     1       0.1431599116E+00      19  115    1      -0.1279068649E+06      0.1279567068E+06      0.1891606955E+06      0.8517874919E+00
          6                37           0            36   60     1       0.1002119364E+00      19  115    1      -0.8504730243E+05      0.8513609615E+05      0.1279567068E+06      0.8517874919E+00
          7                37           0            36   60     1       0.7014835428E-01      19  115    1      -0.5504566382E+05      0.5519879150E+05      0.8513609615E+05      0.8517874919E+00
          8                37           0            36   60     1       0.4910384716E-01      19  115    1      -0.3404454389E+05      0.3431049540E+05      0.5519879150E+05      0.8517874919E+00
          9                37           0            36   60     1       0.3437269243E-01      19  115    1      -0.1934377330E+05      0.1983173448E+05      0.3431049540E+05      0.8517874919E+00
         10                37           0            36   60     1       0.2406088429E-01      19  115    1      -0.9053240483E+04      0.1008698312E+05      0.1983173448E+05      0.8517874919E+00
          0                38           2            36   60     1       0.8517854440E+00      27  108    1      -0.2719873486E+04      0.4866613013E+04      0.1008698312E+05      0.8517854440E+00

    ------------------------------------------------
       NWT REQUIRED           38 OUTER ITERATIONS 
       AND A TOTAL OF         76 INNER ITERATIONS.
    ------------------------------------------------

 OUTPUT CONTROL FOR STRESS PERIOD    1   TIME STEP  254
    SAVE HEAD FOR ALL LAYERS
    SAVE DRAWDOWN FOR ALL LAYERS
    SAVE BUDGET
    PRINT BUDGET
 UBDSV1 SAVING "         STORAGE" ON UNIT   9 AT TIME STEP254, STRESS PERIOD   1
 UBDSV2 SAVING "   CONSTANT HEAD" ON UNIT   9 AT TIME STEP254, STRESS PERIOD   1
 UBDSV1 SAVING "FLOW RIGHT FACE " ON UNIT   9 AT TIME STEP254, STRESS PERIOD   1
 UBDSV1 SAVING "FLOW FRONT FACE " ON UNIT   9 AT TIME STEP254, STRESS PERIOD   1
 UBDSV4 SAVING "   RIVER LEAKAGE" ON UNIT   9 AT TIME STEP254, STRESS PERIOD   1
 UBDSV3 SAVING "        RECHARGE" ON UNIT   9 AT TIME STEP254, STRESS PERIOD   1

 HEAD WILL BE SAVED ON UNIT   37 AT END OF TIME STEP  254, STRESS PERIOD    1

 DRAWDOWN WILL BE SAVED ON UNIT   38 AT END OF TIME STEP  254, STRESS PERIOD    1
1
  VOLUMETRIC BUDGET FOR ENTIRE MODEL AT END OF TIME STEP  254, STRESS PERIOD   1
  ------------------------------------------------------------------------------

     CUMULATIVE VOLUMES      L**3       RATES FOR THIS TIME STEP      L**3/T
     ------------------                 ------------------------

           IN:                                      IN:
           ---                                      ---
             STORAGE =   219441392.0000               STORAGE =      722699.8750
       CONSTANT HEAD =           0.0000         CONSTANT HEAD =           0.0000
       RIVER LEAKAGE =  1090483328.0000         RIVER LEAKAGE =    10679296.0000
            RECHARGE =      724868.6250              RECHARGE =      329285.5625

            TOTAL IN =  1310649600.0000              TOTAL IN =    11731282.0000

          OUT:                                     OUT:
          ----                                     ----
             STORAGE =  1300393600.0000               STORAGE =    11559338.0000
       CONSTANT HEAD =           0.0000         CONSTANT HEAD =           0.0000
       RIVER LEAKAGE =    10511348.0000         RIVER LEAKAGE =      172088.8594
            RECHARGE =           0.0000              RECHARGE =           0.0000

           TOTAL OUT =  1310904960.0000             TOTAL OUT =    11731427.0000

            IN - OUT =     -255360.0000              IN - OUT =        -145.0000

 PERCENT DISCREPANCY =          -0.02     PERCENT DISCREPANCY =          -0.00






         TIME SUMMARY AT END OF TIME STEP  254 IN STRESS PERIOD    1
                    SECONDS     MINUTES      HOURS       DAYS        YEARS
                    -----------------------------------------------------------
   TIME STEP LENGTH  86400.      1440.0      24.000      1.0000     2.73785E-03
 STRESS PERIOD TIME 2.19456E+07 3.65760E+05  6096.0      254.00     0.69541    
         TOTAL TIME 2.19456E+07 3.65760E+05  6096.0      254.00     0.69541    
1
 
 SOLVING FOR HEAD 
                                                   Max.-Head-Change                        Max.-Flux-Residual
  Residual-Control   Outer-Iter.   Inner-Iter.     Column Row Layer    Max.-Head-Change    Column Row Layer    Max.-Flux-Residual            L2-New               L2-Old           Solver-Max-Delh
          0                 1           2            36   60     1       0.1164372055E+03      12  125    1       0.4035186473E+06      0.1316911774E+07      0.2647489769E+03      0.1164372055E+03
          1                 1           0            36   60     1       0.8150604245E+02      29   97    1      -0.1472988159E+08      0.5280818079E+08      0.1316911774E+07      0.1164372055E+03
          2                 1           0            36   60     1       0.5705422874E+02      29   97    1      -0.1012956623E+08      0.3161210201E+08      0.5280818079E+08      0.1164372055E+03
          3                 1           0            36   60     1       0.3993795944E+02      29   97    1      -0.6909860769E+07      0.1973699865E+08      0.3161210201E+08      0.1164372055E+03
          4                 1           0            36   60     1       0.2795657113E+02      32  101    1      -0.4740948728E+07      0.1361114353E+08      0.1973699865E+08      0.1164372055E+03
          5                 1           0            36   60     1       0.1956959946E+02      32  101    1      -0.3292500447E+07      0.1002165041E+08      0.1361114353E+08      0.1164372055E+03
          6                 1           0            36   60     1       0.1369871939E+02      32  101    1      -0.2278636247E+07      0.7458697342E+07      0.1002165041E+08      0.1164372055E+03
          7                 1           0            36   60     1       0.9589103409E+01      32  101    1      -0.1568955613E+07      0.4864788205E+07      0.7458697342E+07      0.1164372055E+03
          8                 1           0            36   60     1       0.6712372272E+01      32  101    1      -0.1072165531E+07      0.3104904977E+07      0.4864788205E+07      0.1164372055E+03
          9                 1           0            36   60     1       0.4698660510E+01      32  101    1      -0.7244122280E+06      0.2121306887E+07      0.3104904977E+07      0.1164372055E+03
                                                   Max.-Head-Change                        Max.-Flux-Residual
  Residual-Control   Outer-Iter.   Inner-Iter.     Column Row Layer    Max.-Head-Change    Column Row Layer    Max.-Flux-Residual            L2-New               L2-Old           Solver-Max-Delh
         10                 1           0            36   60     1       0.3289062301E+01      32  101    1      -0.4809877823E+06      0.1623259298E+07      0.2121306887E+07      0.1164372055E+03
          0                 2           2            36   60     1       0.1163989144E+03      12  125    1       0.3909804042E+06      0.1412920220E+07      0.1623259298E+07      0.1163989144E+03
          1                 2           0            36   60     1       0.8147923868E+02      29   97    1      -0.1478249616E+08      0.4962652068E+08      0.1412920220E+07      0.1163989144E+03
          2                 2           0            36   60     1       0.5703546610E+02      29   97    1      -0.1056256509E+08      0.2888166984E+08      0.4962652068E+08      0.1163989144E+03
          3                 2           0            36   60     1       0.3992482559E+02      29   97    1      -0.7342932139E+07      0.1719170666E+08      0.2888166984E+08      0.1163989144E+03
          4                 2           0            36   60     1       0.2794737744E+02      29   97    1      -0.5088737222E+07      0.1130034143E+08      0.1719170666E+08      0.1163989144E+03
          5                 2           0            36   60     1       0.1956316387E+02      29   97    1      -0.3510869942E+07      0.8197091226E+07      0.1130034143E+08      0.1163989144E+03
          6                 2           0            36   60     1       0.1369421448E+02      29   97    1      -0.2406407552E+07      0.6122619605E+07      0.8197091226E+07      0.1163989144E+03
          7                 2           0            36   60     1       0.9585949972E+01      29   97    1      -0.1633305788E+07      0.4087787060E+07      0.6122619605E+07      0.1163989144E+03
          8                 2           0            36   60     1       0.6710164866E+01      29   97    1      -0.1092145291E+07      0.2672677625E+07      0.4087787060E+07      0.1163989144E+03
                                                   Max.-Head-Change                        Max.-Flux-Residual
  Residual-Control   Outer-Iter.   Inner-Iter.     Column Row Layer    Max.-Head-Change    Column Row Layer    Max.-Flux-Residual            L2-New               L2-Old           Solver-Max-Delh
          9                 2           0            36   60     1       0.4697115326E+01      29   97    1      -0.7133382076E+06      0.1902621794E+07      0.2672677625E+07      0.1163989144E+03
         10                 2           0            36   60     1       0.3287980672E+01      29   97    1      -0.4481758296E+06      0.1563564276E+07      0.1902621794E+07      0.1163989144E+03
          0                 3           2            36   60     1       0.1163606610E+03      12  125    1       0.3788317529E+06      0.1445079209E+07      0.1563564276E+07      0.1163606610E+03
          1                 3           0            36   60     1       0.8145246133E+02      31  101    1      -0.1340944534E+08      0.4910465409E+08      0.1445079209E+07      0.1163606610E+03
          2                 3           0            36   60     1       0.5701672196E+02      32  103    1      -0.9772861951E+07      0.2845063446E+08      0.4910465409E+08      0.1163606610E+03
          3                 3           0            36   60     1       0.3991170469E+02      26  108    1      -0.7249543421E+07      0.1658852944E+08      0.2845063446E+08      0.1163606610E+03
          4                 3           0            36   60     1       0.2793819281E+02      26  108    1      -0.5056909612E+07      0.1046136825E+08      0.1658852944E+08      0.1163606610E+03
          5                 3           0            36   60     1       0.1955673463E+02      26  108    1      -0.3522118193E+07      0.7493091511E+07      0.1046136825E+08      0.1163606610E+03
          6                 3           0            36   60     1       0.1368971401E+02      26  108    1      -0.2447819739E+07      0.5557678502E+07      0.7493091511E+07      0.1163606610E+03
          7                 3           0            36   60     1       0.9582799644E+01      26  108    1      -0.1695838282E+07      0.4020121653E+07      0.5557678502E+07      0.1163606610E+03
                                                   Max.-Head-Change                        Max.-Flux-Residual
  Residual-Control   Outer-Iter.   Inner-Iter.     Column Row Layer    Max.-Head-Change    Column Row Layer    Max.-Flux-Residual            L2-New               L2-Old           Solver-Max-Delh
          8                 3           0            36   60     1       0.6707959636E+01      26  108    1      -0.1169464721E+07      0.2771885264E+07      0.4020121653E+07      0.1163606610E+03
          9                 3           0            36   60     1       0.4695571666E+01      26  108    1      -0.8010098244E+06      0.2049357052E+07      0.2771885264E+07      0.1163606610E+03
         10                 3           0            36   60     1       0.3286900110E+01      26  108    1      -0.5430946305E+06      0.1680769620E+07      0.2049357052E+07      0.1163606610E+03
          0                 4           2            36   59     1       0.1162382103E+03      12  125    1       0.3670605879E+06      0.1520402678E+07      0.1680769620E+07      0.1162382103E+03
          1                 4           0            36   59     1       0.8136674581E+02      31  101    1      -0.1380912092E+08      0.4870520237E+08      0.1520402678E+07      0.1162382103E+03
          2                 4           0            36   59     1       0.5695672109E+02      31  101    1      -0.9563569442E+07      0.2723075332E+08      0.4870520237E+08      0.1162382103E+03
          3                 4           0            36   59     1       0.3986970409E+02      31  101    1      -0.6592106877E+07      0.1438958793E+08      0.2723075332E+08      0.1162382103E+03
          4                 4           0            36   59     1       0.2790879239E+02      31  101    1      -0.4512290590E+07      0.8154104899E+07      0.1438958793E+08      0.1162382103E+03
          5                 4           0            36   59     1       0.1953615434E+02      31  101    1      -0.3056520877E+07      0.5610920307E+07      0.8154104899E+07      0.1162382103E+03
          6                 4           0            36   59     1       0.1367530780E+02      31  101    1      -0.2037531909E+07      0.4059629456E+07      0.5610920307E+07      0.1162382103E+03
                                                   Max.-Head-Change                        Max.-Flux-Residual
  Residual-Control   Outer-Iter.   Inner-Iter.     Column Row Layer    Max.-Head-Change    Column Row Layer    Max.-Flux-Residual            L2-New               L2-Old           Solver-Max-Delh
          7                 4           0            36   59     1       0.9572715299E+01      31  101    1      -0.1324264052E+07      0.2983580122E+07      0.4059629456E+07      0.1162382103E+03
          8                 4           0            36   59     1       0.6700900595E+01      36   60    1      -0.9097281989E+06      0.2180520204E+07      0.2983580122E+07      0.1162382103E+03
          9                 4           0            36   59     1       0.4690630337E+01      36   60    1      -0.6231315481E+06      0.1779475269E+07      0.2180520204E+07      0.1162382103E+03
          0                 5           2            36   58     1       0.1064386763E+03      36   60    1      -0.4226070827E+06      0.1601872127E+07      0.1779475269E+07      0.1064386763E+03
          1                 5           0            36   58     1       0.7450707212E+02      31  102    1      -0.1202636330E+08      0.4909996848E+08      0.1601872127E+07      0.1064386763E+03
          2                 5           0            36   58     1       0.5215494960E+02      30  107    1      -0.8780910313E+07      0.2812828373E+08      0.4909996848E+08      0.1064386763E+03
          3                 5           0            36   58     1       0.3650846410E+02      30  107    1      -0.5808154511E+07      0.1468310790E+08      0.2812828373E+08      0.1064386763E+03
          4                 5           0            36   58     1       0.2555592443E+02      30  107    1      -0.3727415543E+07      0.7607777931E+07      0.1468310790E+08      0.1064386763E+03
          5                 5           0            36   58     1       0.1788914680E+02      30  107    1      -0.2270991420E+07      0.4615115602E+07      0.7607777931E+07      0.1064386763E+03
          6                 5           0            36   58     1       0.1252240255E+02      35   60    1      -0.1444753815E+07      0.3406709405E+07      0.4615115602E+07      0.1064386763E+03
                                                   Max.-Head-Change                        Max.-Flux-Residual
  Residual-Control   Outer-Iter.   Inner-Iter.     Column Row Layer    Max.-Head-Change    Column Row Layer    Max.-Flux-Residual            L2-New               L2-Old           Solver-Max-Delh
          7                 5           0            36   58     1       0.8765681632E+01      36   58    1      -0.1212117720E+07      0.2481244972E+07      0.3406709405E+07      0.1064386763E+03
          8                 5           0            36   58     1       0.6135977038E+01      36   58    1      -0.8351500009E+06      0.1915308916E+07      0.2481244972E+07      0.1064386763E+03
          0                 6           2            35   58     1       0.9148817497E+02      36   58    1      -0.5714393343E+06      0.1687219024E+07      0.1915308916E+07      0.9148817497E+02
          1                 6           0            35   58     1       0.6404172139E+02      29   98    1      -0.1231938216E+08      0.5260368687E+08      0.1687219024E+07      0.9148817497E+02
          2                 6           0            35   58     1       0.4482920421E+02      31  102    1      -0.9235988063E+07      0.3208425693E+08      0.5260368687E+08      0.9148817497E+02
          3                 6           0            35   58     1       0.3138044241E+02      30  107    1      -0.6624023977E+07      0.1788686088E+08      0.3208425693E+08      0.9148817497E+02
          4                 6           0            35   58     1       0.2196630931E+02      30  107    1      -0.4543272433E+07      0.9681041837E+07      0.1788686088E+08      0.9148817497E+02
          5                 6           0            35   58     1       0.1537641626E+02      30  107    1      -0.3086839505E+07      0.5493773479E+07      0.9681041837E+07      0.9148817497E+02
          6                 6           0            35   58     1       0.1076349120E+02      30  107    1      -0.2067382105E+07      0.3520845063E+07      0.5493773479E+07      0.9148817497E+02
          7                 6           0            35   58     1       0.7534443710E+01      30  107    1      -0.1353784297E+07      0.2469497638E+07      0.3520845063E+07      0.9148817497E+02
                                                   Max.-Head-Change                        Max.-Flux-Residual
  Residual-Control   Outer-Iter.   Inner-Iter.     Column Row Layer    Max.-Head-Change    Column Row Layer    Max.-Flux-Residual            L2-New               L2-Old           Solver-Max-Delh
          8                 6           0            35   58     1       0.5274110507E+01      30  107    1      -0.8542767961E+06      0.1946348567E+07      0.2469497638E+07      0.9148817497E+02
          0                 7           2            35   61     1       0.4784878801E+02      36   58    1      -0.5401409023E+06      0.1720611808E+07      0.1946348567E+07      0.4784878801E+02
          1                 7           0            35   61     1       0.3349415104E+02      29   98    1      -0.1310026202E+08      0.5390383654E+08      0.1720611808E+07      0.4784878801E+02
          2                 7           0            35   61     1       0.2344590533E+02      31  103    1      -0.9613347442E+07      0.3358142618E+08      0.5390383654E+08      0.4784878801E+02
          3                 7           0            35   61     1       0.1641213345E+02      31  103    1      -0.6532060143E+07      0.1886048630E+08      0.3358142618E+08      0.4784878801E+02
          4                 7           0            35   61     1       0.1148849322E+02      31  103    1      -0.4375334544E+07      0.1024906925E+08      0.1886048630E+08      0.4784878801E+02
          5                 7           0            35   61     1       0.8041945116E+01      31  103    1      -0.2865710797E+07      0.5437823837E+07      0.1024906925E+08      0.4784878801E+02
          6                 7           0            35   61     1       0.5629361485E+01      31  103    1      -0.1809015422E+07      0.3044015199E+07      0.5437823837E+07      0.4784878801E+02
          7                 7           0            35   61     1       0.3940552973E+01      31  103    1      -0.1069348877E+07      0.2089895278E+07      0.3044015199E+07      0.4784878801E+02
          0                 8           2            39   57     1       0.2878927911E+02      31  103    1      -0.5515922028E+06      0.1738227570E+07      0.2089895278E+07      0.2878927911E+02
                                                   Max.-Head-Change                        Max.-Flux-Residual
  Residual-Control   Outer-Iter.   Inner-Iter.     Column Row Layer    Max.-Head-Change    Column Row Layer    Max.-Flux-Residual            L2-New               L2-Old           Solver-Max-Delh
          1                 8           0            39   57     1       0.2015249503E+02      29   98    1      -0.1310012793E+08      0.5623039282E+08      0.1738227570E+07      0.2878927911E+02
          2                 8           0            39   57     1       0.1410674628E+02      29   98    1      -0.9957057670E+07      0.3704880012E+08      0.5623039282E+08      0.2878927911E+02
          3                 8           0            39   57     1       0.9874722230E+01      29   98    1      -0.6831056891E+07      0.2187406977E+08      0.3704880012E+08      0.2878927911E+02
          4                 8           0            39   57     1       0.6912305443E+01      29   98    1      -0.4643077777E+07      0.1273834752E+08      0.2187406977E+08      0.2878927911E+02
          5                 8           0            39   57     1       0.4838613728E+01      29   98    1      -0.3111550659E+07      0.7255931814E+07      0.1273834752E+08      0.2878927911E+02
          6                 8           0            39   57     1       0.3387029552E+01      29   98    1      -0.2039509183E+07      0.4160440806E+07      0.7255931814E+07      0.2878927911E+02
          7                 8           0            39   57     1       0.2370920646E+01      29   98    1      -0.1289005118E+07      0.2577506842E+07      0.4160440806E+07      0.2878927911E+02
          0                 9           2            36   57     1       0.2057864612E+02      29   98    1      -0.7634275842E+06      0.1870186010E+07      0.2577506842E+07      0.2057864612E+02
          1                 9           0            36   57     1       0.1440505204E+02      28   98    1      -0.1264801880E+08      0.5299821024E+08      0.1870186010E+07      0.2057864612E+02
          2                 9           0            36   57     1       0.1008353625E+02      28  102    1      -0.9925705485E+07      0.3543309271E+08      0.5299821024E+08      0.2057864612E+02
                                                   Max.-Head-Change                        Max.-Flux-Residual
  Residual-Control   Outer-Iter.   Inner-Iter.     Column Row Layer    Max.-Head-Change    Column Row Layer    Max.-Flux-Residual            L2-New               L2-Old           Solver-Max-Delh
          3                 9           0            36   57     1       0.7058475258E+01      28  102    1      -0.6782199106E+07      0.2099953576E+08      0.3543309271E+08      0.2057864612E+02
          4                 9           0            36   57     1       0.4940932596E+01      28  102    1      -0.4581921972E+07      0.1222154241E+08      0.2099953576E+08      0.2057864612E+02
          5                 9           0            36   57     1       0.3458652759E+01      28  102    1      -0.3041814878E+07      0.7126192470E+07      0.1222154241E+08      0.2057864612E+02
          6                 9           0            36   57     1       0.2421056890E+01      28  102    1      -0.1963782499E+07      0.4111246168E+07      0.7126192470E+07      0.2057864612E+02
          7                 9           0            36   57     1       0.1694739794E+01      28  102    1      -0.1209029778E+07      0.2469725989E+07      0.4111246168E+07      0.2057864612E+02
          0                10           2            36   57     1       0.2058591724E+02      29   98    1      -0.7033934305E+06      0.1928024814E+07      0.2469725989E+07      0.2058591724E+02
          1                10           0            36   57     1       0.1441014182E+02      27   95    1      -0.1286324701E+08      0.5319141006E+08      0.1928024814E+07      0.2058591724E+02
          2                10           0            36   57     1       0.1008709910E+02      28  100    1      -0.1050175223E+08      0.3813171624E+08      0.5319141006E+08      0.2058591724E+02
          3                10           0            36   57     1       0.7060969253E+01      28  100    1      -0.7343823627E+07      0.2382367966E+08      0.3813171624E+08      0.2058591724E+02
          4                10           0            36   57     1       0.4942678393E+01      28  100    1      -0.5133393733E+07      0.1479581567E+08      0.2382367966E+08      0.2058591724E+02
                                                   Max.-Head-Change                        Max.-Flux-Residual
  Residual-Control   Outer-Iter.   Inner-Iter.     Column Row Layer    Max.-Head-Change    Column Row Layer    Max.-Flux-Residual            L2-New               L2-Old           Solver-Max-Delh
          5                10           0            36   57     1       0.3459874816E+01      28  100    1      -0.3586151679E+07      0.9365968318E+07      0.1479581567E+08      0.2058591724E+02
          6                10           0            36   57     1       0.2421912330E+01      28  100    1      -0.2503111094E+07      0.6164849232E+07      0.9365968318E+07      0.2058591724E+02
          7                10           0            36   57     1       0.1695338602E+01      28  100    1      -0.1744996826E+07      0.4258729228E+07      0.6164849232E+07      0.2058591724E+02
          8                10           0            36   57     1       0.1186737001E+01      28  100    1      -0.1214323771E+07      0.3096262191E+07      0.4258729228E+07      0.2058591724E+02
          9                10           0            36   57     1       0.8307158868E+00      28  100    1      -0.8428560309E+06      0.2438685438E+07      0.3096262191E+07      0.2058591724E+02
          0                11           2            46   52     1       0.4504500922E+02      29   98    1      -0.6764277207E+06      0.2112700568E+07      0.2438685438E+07      0.4504500922E+02
          1                11           0            46   52     1       0.3153150592E+02      27   95    1      -0.1347004609E+08      0.4492106873E+08      0.2112700568E+07      0.4504500922E+02
          2                11           0            46   52     1       0.2207205377E+02      28  101    1      -0.9545009747E+07      0.3006533167E+08      0.4492106873E+08      0.4504500922E+02
          3                11           0            46   52     1       0.1545043737E+02      28  101    1      -0.6479871101E+07      0.1750759767E+08      0.3006533167E+08      0.4504500922E+02
          4                11           0            46   52     1       0.1081530598E+02      28  101    1      -0.4334440207E+07      0.9746389841E+07      0.1750759767E+08      0.4504500922E+02
                                                   Max.-Head-Change                        Max.-Flux-Residual
  Residual-Control   Outer-Iter.   Inner-Iter.     Column Row Layer    Max.-Head-Change    Column Row Layer    Max.-Flux-Residual            L2-New               L2-Old           Solver-Max-Delh
          5                11           0            46   52     1       0.7570714055E+01      28  101    1      -0.2832720006E+07      0.5210968503E+07      0.9746389841E+07      0.4504500922E+02
          6                11           0            46   52     1       0.5299499748E+01      28  101    1      -0.1781555770E+07      0.3006025680E+07      0.5210968503E+07      0.4504500922E+02
          0                12           2            36   57     1       0.2059706210E+02      28  101    1      -0.1045760361E+07      0.2185535589E+07      0.3006025680E+07      0.2059706210E+02
          1                12           0            36   57     1       0.1441794322E+02      27   98    1      -0.1391567667E+08      0.4461138679E+08      0.2185535589E+07      0.2059706210E+02
          2                12           0            36   57     1       0.1009256009E+02      27   99    1      -0.9867544474E+07      0.3227799895E+08      0.4461138679E+08      0.2059706210E+02
          3                12           0            36   57     1       0.7064791940E+01      29  100    1      -0.7068744890E+07      0.2075752961E+08      0.3227799895E+08      0.2059706210E+02
          4                12           0            36   57     1       0.4945354273E+01      29  100    1      -0.4915806309E+07      0.1291517523E+08      0.2075752961E+08      0.2059706210E+02
          5                12           0            36   57     1       0.3461747932E+01      29  100    1      -0.3408859871E+07      0.8066503464E+07      0.1291517523E+08      0.2059706210E+02
          6                12           0            36   57     1       0.2423223511E+01      29  100    1      -0.2354051549E+07      0.5104827041E+07      0.8066503464E+07      0.2059706210E+02
          7                12           0            36   57     1       0.1696256429E+01      29  100    1      -0.1615712278E+07      0.3477219147E+07      0.5104827041E+07      0.2059706210E+02
                                                   Max.-Head-Change                        Max.-Flux-Residual
  Residual-Control   Outer-Iter.   Inner-Iter.     Column Row Layer    Max.-Head-Change    Column Row Layer    Max.-Flux-Residual            L2-New               L2-Old           Solver-Max-Delh
          8                12           0            36   57     1       0.1187379480E+01      29  100    1      -0.1098887802E+07      0.2704853926E+07      0.3477219147E+07      0.2059706210E+02
          0                13           2            36   57     1       0.2060016821E+02      28  101    1      -0.9884880493E+06      0.2369564907E+07      0.2704853926E+07      0.2060016821E+02
          1                13           0            36   57     1       0.1442011750E+02      27   98    1      -0.1462356648E+08      0.4184514811E+08      0.2369564907E+07      0.2060016821E+02
          2                13           0            36   57     1       0.1009408208E+02      27   98    1      -0.1027067002E+08      0.3005242413E+08      0.4184514811E+08      0.2060016821E+02
          3                13           0            36   57     1       0.7065857337E+01      27   98    1      -0.7111985265E+07      0.1911966364E+08      0.3005242413E+08      0.2060016821E+02
          4                13           0            36   57     1       0.4946100051E+01      27   98    1      -0.4901145340E+07      0.1196856210E+08      0.1911966364E+08      0.2060016821E+02
          5                13           0            36   57     1       0.3462269977E+01      27   98    1      -0.3353674707E+07      0.7530470183E+07      0.1196856210E+08      0.2060016821E+02
          6                13           0            36   57     1       0.2423588943E+01      27   98    1      -0.2270502753E+07      0.4894966772E+07      0.7530470183E+07      0.2060016821E+02
          7                13           0            36   57     1       0.1696512231E+01      27   98    1      -0.1512310560E+07      0.3373201626E+07      0.4894966772E+07      0.2060016821E+02
          8                13           0            36   57     1       0.1187558541E+01      27   98    1      -0.9815898319E+06      0.2639773835E+07      0.3373201626E+07      0.2060016821E+02
                                                   Max.-Head-Change                        Max.-Flux-Residual
  Residual-Control   Outer-Iter.   Inner-Iter.     Column Row Layer    Max.-Head-Change    Column Row Layer    Max.-Flux-Residual            L2-New               L2-Old           Solver-Max-Delh
          0                14           2            36   57     1       0.2060289235E+02      28  101    1      -0.9343520624E+06      0.2383231919E+07      0.2639773835E+07      0.2060289235E+02
          1                14           0            36   57     1       0.1442202440E+02      27   97    1      -0.1268723576E+08      0.3737168005E+08      0.2383231919E+07      0.2060289235E+02
          2                14           0            36   57     1       0.1009541691E+02      28   96    1      -0.1036214897E+08      0.2666304149E+08      0.3737168005E+08      0.2060289235E+02
          3                14           0            36   57     1       0.7066791715E+01      28   96    1      -0.7232427293E+07      0.1738582992E+08      0.2666304149E+08      0.2060289235E+02
          4                14           0            36   57     1       0.4946754116E+01      28   96    1      -0.5041864712E+07      0.1104095172E+08      0.1738582992E+08      0.2060289235E+02
          5                14           0            36   57     1       0.3462727822E+01      28   96    1      -0.3508556348E+07      0.7049149295E+07      0.1104095172E+08      0.2060289235E+02
          6                14           0            36   57     1       0.2423909434E+01      28   96    1      -0.2435282367E+07      0.4750850852E+07      0.7049149295E+07      0.2060289235E+02
          7                14           0            36   57     1       0.1696736575E+01      28   96    1      -0.1683709897E+07      0.3499291552E+07      0.4750850852E+07      0.2060289235E+02
          8                14           0            36   57     1       0.1187715582E+01      28   96    1      -0.1157567213E+07      0.2831905421E+07      0.3499291552E+07      0.2060289235E+02
          0                15           2            36   57     1       0.2060526356E+02      28  101    1      -0.8831803744E+06      0.2520837322E+07      0.2831905421E+07      0.2060526356E+02
                                                   Max.-Head-Change                        Max.-Flux-Residual
  Residual-Control   Outer-Iter.   Inner-Iter.     Column Row Layer    Max.-Head-Change    Column Row Layer    Max.-Flux-Residual            L2-New               L2-Old           Solver-Max-Delh
          1                15           0            36   57     1       0.1442368424E+02      27   97    1      -0.1355313706E+08      0.3533026812E+08      0.2520837322E+07      0.2060526356E+02
          2                15           0            36   57     1       0.1009657880E+02      28   95    1      -0.1042130317E+08      0.2342749383E+08      0.3533026812E+08      0.2060526356E+02
          3                15           0            36   57     1       0.7067605039E+01      28   95    1      -0.7287933616E+07      0.1471096538E+08      0.2342749383E+08      0.2060526356E+02
          4                15           0            36   57     1       0.4947323443E+01      28   95    1      -0.5094870766E+07      0.9220244821E+07      0.1471096538E+08      0.2060526356E+02
          5                15           0            36   57     1       0.3463126351E+01      28   95    1      -0.3559871739E+07      0.5789824000E+07      0.9220244821E+07      0.2060526356E+02
          6                15           0            36   57     1       0.2424188405E+01      28   95    1      -0.2485443459E+07      0.3857933420E+07      0.5789824000E+07      0.2060526356E+02
          7                15           0            36   57     1       0.1696931854E+01      28   95    1      -0.1733378477E+07      0.2961457286E+07      0.3857933420E+07      0.2060526356E+02
          0                16           2            36   57     1       0.2060816640E+02      28   95    1      -0.1206950050E+07      0.2625975004E+07      0.2961457286E+07      0.2060816640E+02
          1                16           0            36   57     1       0.1442571623E+02      27   96    1      -0.1362142226E+08      0.3118977189E+08      0.2625975004E+07      0.2060816640E+02
          2                16           0            36   57     1       0.1009800119E+02      27   96    1      -0.1009489657E+08      0.2088456507E+08      0.3118977189E+08      0.2060816640E+02
                                                   Max.-Head-Change                        Max.-Flux-Residual
  Residual-Control   Outer-Iter.   Inner-Iter.     Column Row Layer    Max.-Head-Change    Column Row Layer    Max.-Flux-Residual            L2-New               L2-Old           Solver-Max-Delh
          3                16           0            36   57     1       0.7068600713E+01      27   96    1      -0.6984835396E+07      0.1325927815E+08      0.2088456507E+08      0.2060816640E+02
          4                16           0            36   57     1       0.4948020415E+01      27   96    1      -0.4808025031E+07      0.8408104485E+07      0.1325927815E+08      0.2060816640E+02
          5                16           0            36   57     1       0.3463614231E+01      27   96    1      -0.3284371687E+07      0.5537680276E+07      0.8408104485E+07      0.2060816640E+02
          6                16           0            36   57     1       0.2424529921E+01      27   96    1      -0.2217870169E+07      0.3825808629E+07      0.5537680276E+07      0.2060816640E+02
          7                16           0            36   57     1       0.1697170916E+01      27   96    1      -0.1471347566E+07      0.2956715456E+07      0.3825808629E+07      0.2060816640E+02
          0                17           2            36   57     1       0.2061045858E+02      28   95    1      -0.1112522588E+07      0.2638655815E+07      0.2956715456E+07      0.2061045858E+02
          1                17           0            36   57     1       0.1442732076E+02      26   93    1      -0.1293606142E+08      0.2663442073E+08      0.2638655815E+07      0.2061045858E+02
          2                17           0            36   57     1       0.1009912436E+02      26  100    1      -0.1005025037E+08      0.1815190147E+08      0.2663442073E+08      0.2061045858E+02
          3                17           0            36   57     1       0.7069386931E+01      26  100    1      -0.7007227631E+07      0.1158710091E+08      0.1815190147E+08      0.2061045858E+02
          4                17           0            36   57     1       0.4948570767E+01      26  100    1      -0.4877229085E+07      0.7432394367E+07      0.1158710091E+08      0.2061045858E+02
                                                   Max.-Head-Change                        Max.-Flux-Residual
  Residual-Control   Outer-Iter.   Inner-Iter.     Column Row Layer    Max.-Head-Change    Column Row Layer    Max.-Flux-Residual            L2-New               L2-Old           Solver-Max-Delh
          5                17           0            36   57     1       0.3463999478E+01      26  100    1      -0.3386346025E+07      0.5009411040E+07      0.7432394367E+07      0.2061045858E+02
          6                17           0            36   57     1       0.2424799593E+01      26  100    1      -0.2342504967E+07      0.3751685772E+07      0.5009411040E+07      0.2061045858E+02
          7                17           0            36   57     1       0.1697359686E+01      26  100    1      -0.1611657413E+07      0.3074879913E+07      0.3751685772E+07      0.2061045858E+02
          0                18           2            36   57     1       0.2061220411E+02      26  100    1      -0.1100070331E+07      0.2755207355E+07      0.3074879913E+07      0.2061220411E+02
          1                18           0            36   57     1       0.1442854263E+02      26   99    1      -0.1150042974E+08      0.2203548043E+08      0.2755207355E+07      0.2061220411E+02
          2                18           0            36   57     1       0.1009997967E+02      26   99    1      -0.8630572470E+07      0.1434494757E+08      0.2203548043E+08      0.2061220411E+02
          3                18           0            36   57     1       0.7069985649E+01      26   99    1      -0.5494279385E+07      0.8843208595E+07      0.1434494757E+08      0.2061220411E+02
          4                18           0            36   57     1       0.4948989870E+01      26   99    1      -0.3298944011E+07      0.5492787222E+07      0.8843208595E+07      0.2061220411E+02
          5                18           0            36   57     1       0.3464292850E+01      26   99    1      -0.1762303577E+07      0.3537221787E+07      0.5492787222E+07      0.2061220411E+02
          0                19           2            41   62     1       0.2844858502E+02      26  102    1      -0.1127218130E+07      0.2732956588E+07      0.3537221787E+07      0.2844858502E+02
                                                   Max.-Head-Change                        Max.-Flux-Residual
  Residual-Control   Outer-Iter.   Inner-Iter.     Column Row Layer    Max.-Head-Change    Column Row Layer    Max.-Flux-Residual            L2-New               L2-Old           Solver-Max-Delh
          1                19           0            41   62     1       0.1991400918E+02      26   92    1      -0.1266445190E+08      0.1815064387E+08      0.2732956588E+07      0.2844858502E+02
          2                19           0            41   62     1       0.1393980619E+02      26   92    1      -0.8806197802E+07      0.1148503342E+08      0.1815064387E+08      0.2844858502E+02
          3                19           0            41   62     1       0.9757864164E+01      26   92    1      -0.6105767913E+07      0.7319046216E+07      0.1148503342E+08      0.2844858502E+02
          4                19           0            41   62     1       0.6830504798E+01      26   92    1      -0.4215637508E+07      0.4850539787E+07      0.7319046216E+07      0.2844858502E+02
          5                19           0            41   62     1       0.4781353277E+01      26   92    1      -0.2892629786E+07      0.3613388437E+07      0.4850539787E+07      0.2844858502E+02
          6                19           0            41   62     1       0.3346947237E+01      26   92    1      -0.1966565330E+07      0.3028217722E+07      0.3613388437E+07      0.2844858502E+02
          0                20           2            25  100     1       0.1381011072E+02      26   92    1      -0.1318340279E+07      0.2762502900E+07      0.3028217722E+07      0.1381011072E+02
          1                20           0            25  100     1       0.9667077342E+01      25  100    1      -0.1054391051E+08      0.1438977644E+08      0.2762502900E+07      0.1381011072E+02
          2                20           0            25  100     1       0.6766954024E+01      25  100    1      -0.7722405335E+07      0.9418009401E+07      0.1438977644E+08      0.1381011072E+02
          3                20           0            25  100     1       0.4736867736E+01      25  100    1      -0.4820818803E+07      0.5800734897E+07      0.9418009401E+07      0.1381011072E+02
                                                   Max.-Head-Change                        Max.-Flux-Residual
  Residual-Control   Outer-Iter.   Inner-Iter.     Column Row Layer    Max.-Head-Change    Column Row Layer    Max.-Flux-Residual            L2-New               L2-Old           Solver-Max-Delh
          4                20           0            25  100     1       0.3315807359E+01      25  100    1      -0.2789833398E+07      0.3724579399E+07      0.5800734897E+07      0.1381011072E+02
          0                21           2            25   99     1       0.1113514910E+02      25  100    1      -0.1368218588E+07      0.2707582521E+07      0.3724579399E+07      0.1113514910E+02
          1                21           0            25   99     1       0.7794604235E+01      26   98    1      -0.8945150141E+07      0.1133032374E+08      0.2707582521E+07      0.1113514910E+02
          2                21           0            25   99     1       0.5456222871E+01      26   98    1      -0.5830519886E+07      0.6782126369E+07      0.1133032374E+08      0.1113514910E+02
          3                21           0            25   99     1       0.3819355945E+01      26   98    1      -0.3650512956E+07      0.4045293295E+07      0.6782126369E+07      0.1113514910E+02
          0                22           2            25   99     1       0.1122463050E+02      26   98    1      -0.2124622894E+07      0.2800388610E+07      0.4045293295E+07      0.1122463050E+02
          1                22           0            25   99     1       0.7857241214E+01      25   99    1      -0.9023353240E+07      0.9800980239E+07      0.2800388610E+07      0.1122463050E+02
          2                22           0            25   99     1       0.5500068756E+01      25   99    1      -0.7196975002E+07      0.7598734119E+07      0.9800980239E+07      0.1122463050E+02
          3                22           0            25   99     1       0.3850048064E+01      25   99    1      -0.4838566263E+07      0.5194738502E+07      0.7598734119E+07      0.1122463050E+02
          4                22           0            25   99     1       0.2695033599E+01      25   99    1      -0.3187781022E+07      0.3725159300E+07      0.5194738502E+07      0.1122463050E+02
                                                   Max.-Head-Change                        Max.-Flux-Residual
  Residual-Control   Outer-Iter.   Inner-Iter.     Column Row Layer    Max.-Head-Change    Column Row Layer    Max.-Flux-Residual            L2-New               L2-Old           Solver-Max-Delh
          0                23           2            25  101     1       0.6045315489E+01      25   99    1      -0.2032280790E+07      0.2966752409E+07      0.3725159300E+07      0.6045315489E+01
          1                23           0            25  101     1       0.4231720770E+01      28   93    1      -0.5050803147E+07      0.5178029688E+07      0.2966752409E+07      0.6045315489E+01
          2                23           0            25  101     1       0.2962204489E+01      28   93    1      -0.3492515774E+07      0.3649514490E+07      0.5178029688E+07      0.6045315489E+01
          0                24           2            25  101     1       0.6044856642E+01      28   93    1      -0.2401771007E+07      0.2886954525E+07      0.3649514490E+07      0.6044856642E+01
          1                24           0            25  101     1       0.4231399577E+01      25  101    1      -0.3523437672E+07      0.4075856541E+07      0.2886954525E+07      0.6044856642E+01
          0                25           2            26   91     1       0.4101259125E+01      25  101    1      -0.1708051874E+07      0.2353264328E+07      0.4075856541E+07      0.4101259125E+01
          0                26           2            27   92     1       0.1341223570E+01      31  107    1      -0.5010592520E+06      0.5319751543E+06      0.2353264328E+07      0.1341223570E+01
          0                27           2            27   92     1       0.1341361160E+01      31  107    1      -0.2505855916E+05      0.2660429139E+05      0.5319751543E+06      0.1341361160E+01
          0                28           2            27   92     1       0.1341189377E+01      31  107    1      -0.1252700965E+04      0.1339352375E+04      0.2660429139E+05      0.1341189377E+01
          1                28           0            27   92     1       0.9388325479E+00      10  121    1      -0.1497971362E+06      0.1497972157E+06      0.1339352375E+04      0.1341189377E+01
                                                   Max.-Head-Change                        Max.-Flux-Residual
  Residual-Control   Outer-Iter.   Inner-Iter.     Column Row Layer    Max.-Head-Change    Column Row Layer    Max.-Flux-Residual            L2-New               L2-Old           Solver-Max-Delh
          0                29           2            27   92     1       0.1341058418E+01      31  107    1      -0.4196443985E+03      0.4728905478E+03      0.1497972157E+06      0.1341058418E+01
          1                29           0            27   92     1       0.9387408764E+00      10  121    1      -0.7581437943E+06      0.7581438158E+06      0.4728905478E+03      0.1341058418E+01
          2                29           0            27   92     1       0.6571186023E+00      10  121    1      -0.4974138927E+06      0.4974139396E+06      0.7581438158E+06      0.1341058418E+01
          3                29           0            27   92     1       0.4599830138E+00      10  121    1      -0.3149049856E+06      0.3149051091E+06      0.4974139396E+06      0.1341058418E+01
          4                29           0            27   92     1       0.3219881042E+00      10  121    1      -0.1871497432E+06      0.1871500367E+06      0.3149051091E+06      0.1341058418E+01
          5                29           0            27   92     1       0.2253916691E+00      10  121    1      -0.9772156028E+05      0.9772226311E+05      0.1871500367E+06      0.1341058418E+01
          6                29           0            27   92     1       0.1577741657E+00      10  121    1      -0.3512207106E+05      0.3512433574E+05      0.9772226311E+05      0.1341058418E+01
          0                30           2            27   92     1       0.1341036347E+01      31  107    1      -0.3727419149E+03      0.4263053179E+03      0.3512433574E+05      0.1341036347E+01
          1                30           0            27   92     1       0.9387254268E+00      10  121    1      -0.8603834459E+06      0.8603834671E+06      0.4263053179E+03      0.1341036347E+01
          2                30           0            27   92     1       0.6571077876E+00      10  121    1      -0.5996552028E+06      0.5996552400E+06      0.8603834671E+06      0.1341036347E+01
                                                   Max.-Head-Change                        Max.-Flux-Residual
  Residual-Control   Outer-Iter.   Inner-Iter.     Column Row Layer    Max.-Head-Change    Column Row Layer    Max.-Flux-Residual            L2-New               L2-Old           Solver-Max-Delh
          3                30           0            27   92     1       0.4599754435E+00      10  121    1      -0.4171474568E+06      0.4171475377E+06      0.5996552400E+06      0.1341036347E+01
          4                30           0            27   92     1       0.3219828049E+00      10  121    1      -0.2893930270E+06      0.2893931857E+06      0.4171475377E+06      0.1341036347E+01
          5                30           0            27   92     1       0.2253879596E+00      10  121    1      -0.1999654129E+06      0.1999656956E+06      0.2893931857E+06      0.1341036347E+01
          6                30           0            27   92     1       0.1577715690E+00      10  121    1      -0.1373663218E+06      0.1373667946E+06      0.1999656956E+06      0.1341036347E+01
          7                30           0            27   92     1       0.1104400964E+00      10  121    1      -0.9354707537E+05      0.9354783772E+05      0.1373667946E+06      0.1341036347E+01
          8                30           0            27   92     1       0.7730806620E-01      10  121    1      -0.6287366045E+05      0.6287486948E+05      0.9354783772E+05      0.1341036347E+01
          9                30           0            27   92     1       0.5411564542E-01      10  121    1      -0.4140229835E+05      0.4140421664E+05      0.6287486948E+05      0.1341036347E+01
         10                30           0            27   92     1       0.3788095115E-01      10  121    1      -0.2637235884E+05      0.2637546288E+05      0.4140421664E+05      0.1341036347E+01
         11                30           0            27   92     1       0.2651666535E-01      10  121    1      -0.1585140807E+05      0.1585668139E+05      0.2637546288E+05      0.1341036347E+01
         12                30           0            27   92     1       0.1856166543E-01      10  121    1      -0.8486745957E+04      0.8496736071E+04      0.1585668139E+05      0.1341036347E+01
                                                   Max.-Head-Change                        Max.-Flux-Residual
  Residual-Control   Outer-Iter.   Inner-Iter.     Column Row Layer    Max.-Head-Change    Column Row Layer    Max.-Flux-Residual            L2-New               L2-Old           Solver-Max-Delh
         13                30           0            27   92     1       0.1299316558E-01      10  121    1      -0.3331484175E+04      0.3357110255E+04      0.8496736071E+04      0.1341036347E+01
          0                31           2            27   92     1       0.1341034529E+01      31  107    1      -0.3693109836E+03      0.4229262906E+03      0.3357110255E+04      0.1341034529E+01
          1                31           0            27   92     1       0.9387241543E+00      10  121    1      -0.8688032466E+06      0.8688032677E+06      0.4229262906E+03      0.1341034529E+01
          2                31           0            27   92     1       0.6571068968E+00      10  121    1      -0.6080751401E+06      0.6080751767E+06      0.8688032677E+06      0.1341034529E+01
          3                31           0            27   92     1       0.4599748199E+00      10  121    1      -0.4255674896E+06      0.4255675681E+06      0.6080751767E+06      0.1341034529E+01
          4                31           0            27   92     1       0.3219823685E+00      10  121    1      -0.2978131267E+06      0.2978132790E+06      0.4255675681E+06      0.1341034529E+01
          5                31           0            27   92     1       0.2253876541E+00      10  121    1      -0.2083855595E+06      0.2083858269E+06      0.2978132790E+06      0.1341034529E+01
          6                31           0            27   92     1       0.1577713552E+00      10  121    1      -0.1457865012E+06      0.1457869399E+06      0.2083858269E+06      0.1341034529E+01
          7                31           0            27   92     1       0.1104399467E+00      10  121    1      -0.1019672777E+06      0.1019679662E+06      0.1457869399E+06      0.1341034529E+01
          8                31           0            27   92     1       0.7730796140E-01      10  121    1      -0.7129387888E+05      0.7129492818E+05      0.1019679662E+06      0.1341034529E+01
                                                   Max.-Head-Change                        Max.-Flux-Residual
  Residual-Control   Outer-Iter.   Inner-Iter.     Column Row Layer    Max.-Head-Change    Column Row Layer    Max.-Flux-Residual            L2-New               L2-Old           Solver-Max-Delh
          9                31           0            27   92     1       0.5411557206E-01      10  121    1      -0.4982252802E+05      0.4982409656E+05      0.7129492818E+05      0.1341034529E+01
         10                31           0            27   92     1       0.3788089980E-01      10  121    1      -0.3479259638E+05      0.3479491129E+05      0.4982409656E+05      0.1341034529E+01
         11                31           0            27   92     1       0.2651662941E-01      10  121    1      -0.2427165113E+05      0.2427503954E+05      0.3479491129E+05      0.1341034529E+01
         12                31           0            27   92     1       0.1856164027E-01      10  121    1      -0.1690699287E+05      0.1691192823E+05      0.2427503954E+05      0.1341034529E+01
         13                31           0            27   92     1       0.1299314797E-01      10  121    1      -0.1175173379E+05      0.1175890546E+05      0.1691192823E+05      0.1341034529E+01
         14                31           0            27   92     1       0.9095203421E-02      10  121    1      -0.8143053283E+04      0.8153473191E+04      0.1175890546E+05      0.1341034529E+01
         15                31           0            27   92     1       0.6366642287E-02      10  121    1      -0.5616977360E+04      0.5632147423E+04      0.8153473191E+04      0.1341034529E+01
         16                31           0            27   92     1       0.4456649525E-02      10  121    1      -0.3848724433E+04      0.3870906921E+04      0.5632147423E+04      0.1341034529E+01
         17                31           0            27   92     1       0.3119654614E-02      10  121    1      -0.2610947498E+04      0.2643615275E+04      0.3870906921E+04      0.1341034529E+01
         18                31           0            27   92     1       0.2183758193E-02      10  121    1      -0.1744503705E+04      0.1793108587E+04      0.2643615275E+04      0.1341034529E+01
                                                   Max.-Head-Change                        Max.-Flux-Residual
  Residual-Control   Outer-Iter.   Inner-Iter.     Column Row Layer    Max.-Head-Change    Column Row Layer    Max.-Flux-Residual            L2-New               L2-Old           Solver-Max-Delh
         19                31           0            27   92     1       0.1528630709E-02      10  121    1      -0.1137993081E+04      0.1211270783E+04      0.1793108587E+04      0.1341034529E+01
         20                31           0            27   92     1       0.1070041478E-02      10  121    1      -0.7134356633E+03      0.8253978373E+03      0.1211270783E+04      0.1341034529E+01
         21                31           0            27   92     1       0.7490290218E-03      10  121    1      -0.4162454812E+03      0.5879211089E+03      0.8253978373E+03      0.1341034529E+01
          0                32           2            27   92     1       0.1341034424E+01      31  107    1      -0.3691150158E+03      0.4645569804E+03      0.5879211089E+03      0.1341034424E+01
          0                33           2            27   92     1       0.1340846798E+01      27   92    1       0.1219757489E+03      0.1392312860E+03      0.4645569804E+03      0.1340846798E+01
          0                34           2            27   92     1       0.1340658979E+01      27   92    1       0.1219610103E+03      0.1374433809E+03      0.1392312860E+03      0.1340658979E+01
          0                35           2            27   92     1       0.1340591564E+01      27   92    1       0.1219517805E+03      0.1374286504E+03      0.1374433809E+03      0.1340591564E+01
          1                35           0            27   92     1       0.9384140790E+00      27   92    1      -0.9050189352E+06      0.9052604440E+06      0.1374286504E+03      0.1340591564E+01
          2                35           0            27   92     1       0.6568898441E+00      27   92    1      -0.5025865693E+06      0.5025866244E+06      0.9052604440E+06      0.1340591564E+01
          3                35           0            27   92     1       0.4598228830E+00      27   92    1      -0.2208877669E+06      0.2208877983E+06      0.5025866244E+06      0.1340591564E+01
                                                   Max.-Head-Change                        Max.-Flux-Residual
  Residual-Control   Outer-Iter.   Inner-Iter.     Column Row Layer    Max.-Head-Change    Column Row Layer    Max.-Flux-Residual            L2-New               L2-Old           Solver-Max-Delh
          4                35           0            27   92     1       0.3218760126E+00      27   92    1      -0.2370049452E+05      0.2370058164E+05      0.2208877983E+06      0.1340591564E+01
          0                36           2            27   92     1       0.1340562294E+01      27   92    1       0.1219499022E+03      0.1374264938E+03      0.2370058164E+05      0.1340562294E+01
          1                36           0            27   92     1       0.9383935898E+00      27   92    1      -0.1227074308E+07      0.1233447376E+07      0.1374264938E+03      0.1340562294E+01
          2                36           0            27   92     1       0.6568755017E+00      27   92    1      -0.8246455523E+06      0.8246456393E+06      0.1233447376E+07      0.1340562294E+01
          3                36           0            27   92     1       0.4598128434E+00      27   92    1      -0.5429492767E+06      0.5429493357E+06      0.8246456393E+06      0.1340562294E+01
          4                36           0            27   92     1       0.3218689849E+00      27   92    1      -0.3457637730E+06      0.3457638139E+06      0.5429493357E+06      0.1340562294E+01
          5                36           0            27   92     1       0.2253082856E+00      27   92    1      -0.2077348469E+06      0.2077348776E+06      0.3457638139E+06      0.1340562294E+01
          6                36           0            27   92     1       0.1577157972E+00      27   92    1      -0.1111150530E+06      0.1111150823E+06      0.2077348776E+06      0.1340562294E+01
          7                36           0            27   92     1       0.1104010562E+00      27   92    1      -0.4348142037E+05      0.4348147095E+05      0.1111150823E+06      0.1340562294E+01
          0                37           2            27   92     1       0.1340552255E+01      27   92    1       0.1219492579E+03      0.1374257547E+03      0.4348147095E+05      0.1340552255E+01
                                                   Max.-Head-Change                        Max.-Flux-Residual
  Residual-Control   Outer-Iter.   Inner-Iter.     Column Row Layer    Max.-Head-Change    Column Row Layer    Max.-Flux-Residual            L2-New               L2-Old           Solver-Max-Delh
          1                37           0            27   92     1       0.9383865623E+00      27   92    1      -0.1337537838E+07      0.1347193381E+07      0.1374257547E+03      0.1340552255E+01
          2                37           0            27   92     1       0.6568705824E+00      27   92    1      -0.9351103202E+06      0.9356128443E+06      0.1347193381E+07      0.1340552255E+01
          3                37           0            27   92     1       0.4598093998E+00      27   92    1      -0.6534149113E+06      0.6534149810E+06      0.9356128443E+06      0.1340552255E+01
          4                37           0            27   92     1       0.3218665744E+00      27   92    1      -0.4562300142E+06      0.4562300650E+06      0.6534149810E+06      0.1340552255E+01
          5                37           0            27   92     1       0.2253065982E+00      27   92    1      -0.3182015127E+06      0.3182015513E+06      0.4562300650E+06      0.1340552255E+01
          6                37           0            27   92     1       0.1577146161E+00      27   92    1      -0.2215820162E+06      0.2215820476E+06      0.3182015513E+06      0.1340552255E+01
          7                37           0            27   92     1       0.1104002294E+00      27   92    1      -0.1539485916E+06      0.1539486202E+06      0.2215820476E+06      0.1340552255E+01
          8                37           0            27   92     1       0.7728015925E-01      27   92    1      -0.1066053039E+06      0.1066053335E+06      0.1539486202E+06      0.1340552255E+01
          9                37           0            27   92     1       0.5409611055E-01      27   92    1      -0.7346505632E+05      0.7346509108E+05      0.1066053335E+06      0.1340552255E+01
         10                37           0            27   92     1       0.3786727674E-01      27   92    1      -0.5026690953E+05      0.5026695457E+05      0.7346509108E+05      0.1340552255E+01
                                                   Max.-Head-Change                        Max.-Flux-Residual
  Residual-Control   Outer-Iter.   Inner-Iter.     Column Row Layer    Max.-Head-Change    Column Row Layer    Max.-Flux-Residual            L2-New               L2-Old           Solver-Max-Delh
         11                37           0            27   92     1       0.2650709327E-01      27   92    1      -0.3402821985E+05      0.3402828230E+05      0.5026695457E+05      0.1340552255E+01
         12                37           0            27   92     1       0.1855496497E-01      27   92    1      -0.2266114353E+05      0.2266123443E+05      0.3402828230E+05      0.1340552255E+01
         13                37           0            27   92     1       0.1298847526E-01      27   92    1      -0.1470419332E+05      0.1470433134E+05      0.2266123443E+05      0.1340552255E+01
         14                37           0            27   92     1       0.9091932527E-02      27   92    1      -0.9134329765E+04      0.9134550462E+04      0.1470433134E+05      0.1340552255E+01
         15                37           0            27   92     1       0.6364352660E-02      27   92    1      -0.5235426082E+04      0.5235810014E+04      0.9134550462E+04      0.1340552255E+01
         16                37           0            27   92     1       0.4455046786E-02      27   92    1      -0.2506193913E+04      0.2506994946E+04      0.5235810014E+04      0.1340552255E+01
         17                37           0            27   92     1       0.3118532697E-02      27   92    1      -0.5957316038E+03      0.5990913926E+03      0.2506994946E+04      0.1340552255E+01
          0                38           2            27   92     1       0.1340551971E+01      27   92    1       0.1219492397E+03      0.1374257338E+03      0.5990913926E+03      0.1340551971E+01
          1                38           0            27   92     1       0.9383863637E+00      27   92    1      -0.1340658143E+07      0.1350412261E+07      0.1374257338E+03      0.1340551971E+01
          2                38           0            27   92     1       0.6568704434E+00      27   92    1      -0.9382306597E+06      0.9387650664E+06      0.1350412261E+07      0.1340551971E+01
                                                   Max.-Head-Change                        Max.-Flux-Residual
  Residual-Control   Outer-Iter.   Inner-Iter.     Column Row Layer    Max.-Head-Change    Column Row Layer    Max.-Flux-Residual            L2-New               L2-Old           Solver-Max-Delh
          3                38           0            27   92     1       0.4598093026E+00      27   92    1      -0.6565352752E+06      0.6565353453E+06      0.9387650664E+06      0.1340551971E+01
          4                38           0            27   92     1       0.3218665063E+00      27   92    1      -0.4593503953E+06      0.4593504464E+06      0.6565353453E+06      0.1340551971E+01
          5                38           0            27   92     1       0.2253065506E+00      27   92    1      -0.3213219058E+06      0.3213219446E+06      0.4593504464E+06      0.1340551971E+01
          6                38           0            27   92     1       0.1577145827E+00      27   92    1      -0.2247024176E+06      0.2247024493E+06      0.3213219446E+06      0.1340551971E+01
          7                38           0            27   92     1       0.1104002060E+00      27   92    1      -0.1570689989E+06      0.1570690276E+06      0.2247024493E+06      0.1340551971E+01
          8                38           0            27   92     1       0.7728014290E-01      27   92    1      -0.1097257153E+06      0.1097257447E+06      0.1570690276E+06      0.1340551971E+01
          9                38           0            27   92     1       0.5409609911E-01      27   92    1      -0.7658547066E+05      0.7658550463E+05      0.1097257447E+06      0.1340551971E+01
         10                38           0            27   92     1       0.3786726873E-01      27   92    1      -0.5338732589E+05      0.5338736891E+05      0.7658550463E+05      0.1340551971E+01
         11                38           0            27   92     1       0.2650708766E-01      27   92    1      -0.3714863762E+05      0.3714869543E+05      0.5338736891E+05      0.1340551971E+01
         12                38           0            27   92     1       0.1855496105E-01      27   92    1      -0.2578156229E+05      0.2578164278E+05      0.3714869543E+05      0.1340551971E+01
                                                   Max.-Head-Change                        Max.-Flux-Residual
  Residual-Control   Outer-Iter.   Inner-Iter.     Column Row Layer    Max.-Head-Change    Column Row Layer    Max.-Flux-Residual            L2-New               L2-Old           Solver-Max-Delh
         13                38           0            27   92     1       0.1298847251E-01      27   92    1      -0.1782461276E+05      0.1782472721E+05      0.2578164278E+05      0.1340551971E+01
         14                38           0            27   92     1       0.9091930603E-02      27   92    1      -0.1225474970E+05      0.1225491476E+05      0.1782472721E+05      0.1340551971E+01
         15                38           0            27   92     1       0.6364351314E-02      27   92    1      -0.8355846354E+04      0.8356087443E+04      0.1225491476E+05      0.1340551971E+01
         16                38           0            27   92     1       0.4455045844E-02      27   92    1      -0.5626614421E+04      0.5626971741E+04      0.8356087443E+04      0.1340551971E+01
         17                38           0            27   92     1       0.3118532038E-02      27   92    1      -0.3716152278E+04      0.3716692765E+04      0.5626971741E+04      0.1340551971E+01
         18                38           0            27   92     1       0.2182972389E-02      27   92    1      -0.2378828887E+04      0.2379672764E+04      0.3716692765E+04      0.1340551971E+01
         19                38           0            27   92     1       0.1528080646E-02      27   92    1      -0.1442702572E+04      0.1444093312E+04      0.2379672764E+04      0.1340551971E+01
         20                38           0            27   92     1       0.1069656434E-02      27   92    1      -0.7874141834E+03      0.7899591895E+03      0.1444093312E+04      0.1340551971E+01
         21                38           0            27   92     1       0.7487594912E-03      27   92    1      -0.3287123292E+03      0.3347627112E+03      0.7899591895E+03      0.1340551971E+01
          0                39           2            31  106     1       0.4340055785E+00      31  106    1       0.3949905941E+02      0.6381461323E+02      0.3347627112E+03      0.4340055785E+00

    ------------------------------------------------
       NWT REQUIRED           39 OUTER ITERATIONS 
       AND A TOTAL OF         78 INNER ITERATIONS.
    ------------------------------------------------

 OUTPUT CONTROL FOR STRESS PERIOD    1   TIME STEP  255
    SAVE HEAD FOR ALL LAYERS
    SAVE DRAWDOWN FOR ALL LAYERS
    SAVE BUDGET
    PRINT BUDGET
 UBDSV1 SAVING "         STORAGE" ON UNIT   9 AT TIME STEP255, STRESS PERIOD   1
 UBDSV2 SAVING "   CONSTANT HEAD" ON UNIT   9 AT TIME STEP255, STRESS PERIOD   1
 UBDSV1 SAVING "FLOW RIGHT FACE " ON UNIT   9 AT TIME STEP255, STRESS PERIOD   1
 UBDSV1 SAVING "FLOW FRONT FACE " ON UNIT   9 AT TIME STEP255, STRESS PERIOD   1
 UBDSV4 SAVING "   RIVER LEAKAGE" ON UNIT   9 AT TIME STEP255, STRESS PERIOD   1
 UBDSV3 SAVING "        RECHARGE" ON UNIT   9 AT TIME STEP255, STRESS PERIOD   1

 HEAD WILL BE SAVED ON UNIT   37 AT END OF TIME STEP  255, STRESS PERIOD    1

 DRAWDOWN WILL BE SAVED ON UNIT   38 AT END OF TIME STEP  255, STRESS PERIOD    1
1
  VOLUMETRIC BUDGET FOR ENTIRE MODEL AT END OF TIME STEP  255, STRESS PERIOD   1
  ------------------------------------------------------------------------------

     CUMULATIVE VOLUMES      L**3       RATES FOR THIS TIME STEP      L**3/T
     ------------------                 ------------------------

           IN:                                      IN:
           ---                                      ---
             STORAGE =   220105552.0000               STORAGE =      664160.3125
       CONSTANT HEAD =           0.0000         CONSTANT HEAD =           0.0000
       RIVER LEAKAGE =  1100347136.0000         RIVER LEAKAGE =     9863847.0000
            RECHARGE =     1646625.5000              RECHARGE =      921756.9375

            TOTAL IN =  1322099328.0000              TOTAL IN =    11449764.0000

          OUT:                                     OUT:
          ----                                     ----
             STORAGE =  1311791616.0000               STORAGE =    11398034.0000
       CONSTANT HEAD =           0.0000         CONSTANT HEAD =           0.0000
       RIVER LEAKAGE =    10725051.0000         RIVER LEAKAGE =      213703.2812
            RECHARGE =           0.0000              RECHARGE =           0.0000

           TOTAL OUT =  1322516608.0000             TOTAL OUT =    11611737.0000

            IN - OUT =     -417280.0000              IN - OUT =     -161973.0000

 PERCENT DISCREPANCY =          -0.03     PERCENT DISCREPANCY =          -1.40






         TIME SUMMARY AT END OF TIME STEP  255 IN STRESS PERIOD    1
                    SECONDS     MINUTES      HOURS       DAYS        YEARS
                    -----------------------------------------------------------
   TIME STEP LENGTH  86400.      1440.0      24.000      1.0000     2.73785E-03
 STRESS PERIOD TIME 2.20320E+07 3.67200E+05  6120.0      255.00     0.69815    
         TOTAL TIME 2.20320E+07 3.67200E+05  6120.0      255.00     0.69815    
1
 
 SOLVING FOR HEAD 
                                                   Max.-Head-Change                        Max.-Flux-Residual
  Residual-Control   Outer-Iter.   Inner-Iter.     Column Row Layer    Max.-Head-Change    Column Row Layer    Max.-Flux-Residual            L2-New               L2-Old           Solver-Max-Delh
          0                 1           2            27   89     1       0.3059219575E+01      34   98    1      -0.6034373308E+06      0.1447696087E+07      0.6381461323E+02      0.3059219575E+01
          0                 2           2            27   89     1       0.3059121968E+01      31   90    1      -0.8668991760E+06      0.1062671147E+07      0.1447696087E+07      0.3059121968E+01
          0                 3           2            27   89     1       0.3059024370E+01      30   89    1      -0.2614161673E+06      0.2667812545E+06      0.1062671147E+07      0.3059024370E+01
          1                 3           0            27   89     1       0.2141317023E+01      30   88    1      -0.2683774691E+07      0.2684634050E+07      0.2667812545E+06      0.3059024370E+01
          2                 3           0            27   89     1       0.1498921890E+01      30   88    1      -0.1866542223E+07      0.1868673786E+07      0.2684634050E+07      0.3059024370E+01
          3                 3           0            27   89     1       0.1049245305E+01      30   88    1      -0.1294487392E+07      0.1302306937E+07      0.1868673786E+07      0.3059024370E+01
          4                 3           0            27   89     1       0.7344717013E+00      30   88    1      -0.8940550341E+06      0.9119524433E+06      0.1302306937E+07      0.3059024370E+01
          5                 3           0            27   89     1       0.5141301822E+00      30   88    1      -0.6137553363E+06      0.6473674627E+06      0.9119524433E+06      0.3059024370E+01
          6                 3           0            27   89     1       0.3598911214E+00      30   88    1      -0.4175469957E+06      0.4739106464E+06      0.6473674627E+06      0.3059024370E+01
          7                 3           0            27   89     1       0.2519237807E+00      30   88    1      -0.2802018676E+06      0.3669546974E+06      0.4739106464E+06      0.3059024370E+01
                                                   Max.-Head-Change                        Max.-Flux-Residual
  Residual-Control   Outer-Iter.   Inner-Iter.     Column Row Layer    Max.-Head-Change    Column Row Layer    Max.-Flux-Residual            L2-New               L2-Old           Solver-Max-Delh
          8                 3           0            27   89     1       0.1763466435E+00      30   89    1      -0.2409504663E+06      0.3071536238E+06      0.3669546974E+06      0.3059024370E+01
          0                 4           2            27   89     1       0.3059018745E+01      30   89    1      -0.2470910919E+06      0.2778837511E+06      0.3071536238E+06      0.3059018745E+01
          0                 5           2            27   89     1       0.3058921157E+01      31   88    1      -0.1254821538E+06      0.1262533361E+06      0.2778837511E+06      0.3058921157E+01
          1                 5           0            27   89     1       0.2141244773E+01      29   88    1      -0.2711453228E+07      0.3996845439E+07      0.1262533361E+06      0.3058921157E+01
          2                 5           0            27   89     1       0.1498871316E+01      29   88    1      -0.1794147210E+07      0.2552774246E+07      0.3996845439E+07      0.3058921157E+01
          3                 5           0            27   89     1       0.1049209903E+01      29   88    1      -0.1152048031E+07      0.1557826475E+07      0.2552774246E+07      0.3058921157E+01
          4                 5           0            27   89     1       0.7344469197E+00      29   88    1      -0.7025859749E+06      0.8959597555E+06      0.1557826475E+07      0.3058921157E+01
          5                 5           0            27   89     1       0.5141128351E+00      29   88    1      -0.3879642963E+06      0.4988389427E+06      0.8959597555E+06      0.3058921157E+01
          6                 5           0            27   89     1       0.3598789784E+00      29   88    1      -0.1677295432E+06      0.2421683863E+06      0.4988389427E+06      0.3058921157E+01
          0                 6           2            27   89     1       0.3058909677E+01      31   88    1      -0.1114574523E+06      0.1162074574E+06      0.2421683863E+06      0.3058909677E+01
                                                   Max.-Head-Change                        Max.-Flux-Residual
  Residual-Control   Outer-Iter.   Inner-Iter.     Column Row Layer    Max.-Head-Change    Column Row Layer    Max.-Flux-Residual            L2-New               L2-Old           Solver-Max-Delh
          1                 6           0            27   89     1       0.2141236737E+01      29   89    1      -0.2528215968E+07      0.2530195024E+07      0.1162074574E+06      0.3058909677E+01
          2                 6           0            27   89     1       0.1498865690E+01      29   89    1      -0.1611103441E+07      0.1612210661E+07      0.2530195024E+07      0.3058909677E+01
          3                 6           0            27   89     1       0.1049205965E+01      29   89    1      -0.9691447227E+06      0.9711584868E+06      0.1612210661E+07      0.3058909677E+01
          4                 6           0            27   89     1       0.7344441633E+00      29   89    1      -0.5197834473E+06      0.5256529443E+06      0.9711584868E+06      0.3058909677E+01
          5                 6           0            27   89     1       0.5141109056E+00      29   89    1      -0.2052353714E+06      0.2239809524E+06      0.5256529443E+06      0.3058909677E+01
          0                 7           2            27   89     1       0.3058893276E+01      31   88    1      -0.9366125253E+05      0.9765475786E+05      0.2239809524E+06      0.3058893276E+01
          1                 7           0            27   89     1       0.2141225257E+01      29   89    1      -0.3041994272E+07      0.3044793453E+07      0.9765475786E+05      0.3058893276E+01
          2                 7           0            27   89     1       0.1498857654E+01      29   89    1      -0.2124872896E+07      0.2126478806E+07      0.3044793453E+07      0.3058893276E+01
          3                 7           0            27   89     1       0.1049200340E+01      29   89    1      -0.1482907978E+07      0.1484304443E+07      0.2126478806E+07      0.3058893276E+01
          4                 7           0            27   89     1       0.7344402256E+00      29   89    1      -0.1033542359E+07      0.1035693993E+07      0.1484304443E+07      0.3058893276E+01
                                                   Max.-Head-Change                        Max.-Flux-Residual
  Residual-Control   Outer-Iter.   Inner-Iter.     Column Row Layer    Max.-Head-Change    Column Row Layer    Max.-Flux-Residual            L2-New               L2-Old           Solver-Max-Delh
          5                 7           0            27   89     1       0.5141081492E+00      29   89    1      -0.7189912416E+06      0.7229305856E+06      0.1035693993E+07      0.3058893276E+01
          6                 7           0            27   89     1       0.3598756983E+00      29   89    1      -0.4988078198E+06      0.5055116348E+06      0.7229305856E+06      0.3058893276E+01
          7                 7           0            27   89     1       0.2519129845E+00      29   89    1      -0.3446805820E+06      0.3554257452E+06      0.5055116348E+06      0.3058893276E+01
          8                 7           0            27   89     1       0.1763390862E+00      29   89    1      -0.2367920833E+06      0.2533225323E+06      0.3554257452E+06      0.3058893276E+01
          9                 7           0            27   89     1       0.1234373582E+00      29   89    1      -0.1612704128E+06      0.1858173149E+06      0.2533225323E+06      0.3058893276E+01
         10                 7           0            27   89     1       0.8640614927E-01      29   89    1      -0.1084053802E+06      0.1434245216E+06      0.1858173149E+06      0.3058893276E+01
         11                 7           0            27   89     1       0.6048430346E-01      31   88    1      -0.9114778650E+05      0.1188660585E+06      0.1434245216E+06      0.3058893276E+01
          0                 8           2            27   89     1       0.3058891347E+01      31   88    1      -0.9190182631E+05      0.1060717614E+06      0.1188660585E+06      0.3058891347E+01
          1                 8           0            27   89     1       0.2141223906E+01      19  118    1      -0.1340293867E+06      0.1341386238E+06      0.1060717614E+06      0.3058891347E+01
          0                 9           2            27   89     1       0.3058823043E+01      19  118    1      -0.7948330749E+05      0.8707011211E+05      0.1341386238E+06      0.3058823043E+01
                                                   Max.-Head-Change                        Max.-Flux-Residual
  Residual-Control   Outer-Iter.   Inner-Iter.     Column Row Layer    Max.-Head-Change    Column Row Layer    Max.-Flux-Residual            L2-New               L2-Old           Solver-Max-Delh
          1                 9           0            27   89     1       0.2141176094E+01      29   87    1      -0.1547809237E+07      0.1547815872E+07      0.8707011211E+05      0.3058823043E+01
          2                 9           0            27   89     1       0.1498823240E+01      29   87    1      -0.8087674924E+06      0.8092935119E+06      0.1547815872E+07      0.3058823043E+01
          3                 9           0            27   89     1       0.1049176250E+01      29   87    1      -0.2914500111E+06      0.2951428586E+06      0.8092935119E+06      0.3058823043E+01
          0                10           2            27   89     1       0.3058789576E+01      19  118    1      -0.5358368578E+05      0.5870371054E+05      0.2951428586E+06      0.3058789576E+01
          1                10           0            27   89     1       0.2141152667E+01      29   87    1      -0.2392766747E+07      0.2516342298E+07      0.5870371054E+05      0.3058789576E+01
          2                10           0            27   89     1       0.1498806841E+01      29   87    1      -0.1653713753E+07      0.1653830848E+07      0.2516342298E+07      0.3058789576E+01
          3                10           0            27   89     1       0.1049164771E+01      29   87    1      -0.1136388396E+07      0.1136821424E+07      0.1653830848E+07      0.3058789576E+01
          4                10           0            27   89     1       0.7344153272E+00      29   87    1      -0.7742663995E+06      0.7752769072E+06      0.1136821424E+07      0.3058789576E+01
          5                10           0            27   89     1       0.5140907203E+00      29   87    1      -0.5207838224E+06      0.5227511445E+06      0.7752769072E+06      0.3058789576E+01
          6                10           0            27   89     1       0.3598634981E+00      29   87    1      -0.3433474014E+06      0.3468726947E+06      0.5227511445E+06      0.3058789576E+01
                                                   Max.-Head-Change                        Max.-Flux-Residual
  Residual-Control   Outer-Iter.   Inner-Iter.     Column Row Layer    Max.-Head-Change    Column Row Layer    Max.-Flux-Residual            L2-New               L2-Old           Solver-Max-Delh
          7                10           0            27   89     1       0.2519044444E+00      29   87    1      -0.2191425850E+06      0.2252601122E+06      0.3468726947E+06      0.3058789576E+01
          8                10           0            27   89     1       0.1763331081E+00      29   87    1      -0.1321995463E+06      0.1428446125E+06      0.2252601122E+06      0.3058789576E+01
          9                10           0            27   89     1       0.1234331735E+00      29   87    1      -0.7133958259E+05      0.9037848308E+05      0.1428446125E+06      0.3058789576E+01
          0                11           2            27   89     1       0.3058785639E+01      19  118    1      -0.5152948425E+05      0.6334667754E+05      0.9037848308E+05      0.3058785639E+01
          1                11           0            27   89     1       0.2141149911E+01      28   89    1      -0.9022245089E+06      0.9022306091E+06      0.6334667754E+05      0.3058785639E+01
          0                12           2            27   89     1       0.3058717342E+01      19  118    1      -0.1726167894E+05      0.2124425614E+05      0.9022306091E+06      0.3058717342E+01
          1                12           0            27   89     1       0.2141102103E+01      28   89    1      -0.3042120502E+07      0.3465809965E+07      0.2124425614E+05      0.3058717342E+01
          2                12           0            27   89     1       0.1498771447E+01      28   89    1      -0.2124991695E+07      0.2203904831E+07      0.3465809965E+07      0.3058717342E+01
          3                12           0            27   89     1       0.1049139995E+01      28   89    1      -0.1483016542E+07      0.1483059999E+07      0.2203904831E+07      0.3058717342E+01
          4                12           0            27   89     1       0.7343979838E+00      28   89    1      -0.1033641293E+07      0.1033740422E+07      0.1483059999E+07      0.3058717342E+01
                                                   Max.-Head-Change                        Max.-Flux-Residual
  Residual-Control   Outer-Iter.   Inner-Iter.     Column Row Layer    Max.-Head-Change    Column Row Layer    Max.-Flux-Residual            L2-New               L2-Old           Solver-Max-Delh
          5                12           0            27   89     1       0.5140785799E+00      28   89    1      -0.7190822267E+06      0.7192690435E+06      0.1033740422E+07      0.3058717342E+01
          6                12           0            27   89     1       0.3598549998E+00      28   89    1      -0.4988926488E+06      0.4992117660E+06      0.7192690435E+06      0.3058717342E+01
          7                12           0            27   89     1       0.2518984956E+00      28   89    1      -0.3447608116E+06      0.3452765885E+06      0.4992117660E+06      0.3058717342E+01
          8                12           0            27   89     1       0.1763289439E+00      28   89    1      -0.2368689512E+06      0.2376767133E+06      0.3452765885E+06      0.3058717342E+01
          9                12           0            27   89     1       0.1234302586E+00      28   89    1      -0.1613448579E+06      0.1625893010E+06      0.2376767133E+06      0.3058717342E+01
         10                12           0            27   89     1       0.8640117957E-01      28   89    1      -0.1084780952E+06      0.1103846487E+06      0.1625893010E+06      0.3058717342E+01
         11                12           0            27   89     1       0.6048082467E-01      28   89    1      -0.7147141178E+05      0.7440088164E+05      0.1103846487E+06      0.3058717342E+01
         12                12           0            27   89     1       0.4233657655E-01      28   89    1      -0.4556675827E+05      0.5010756281E+05      0.7440088164E+05      0.3058717342E+01
         13                12           0            27   89     1       0.2963560308E-01      28   89    1      -0.2743351309E+05      0.3452604772E+05      0.5010756281E+05      0.3058717342E+01
         14                12           0            27   89     1       0.2074492180E-01      19  118    1      -0.1710278959E+05      0.2569534468E+05      0.3452604772E+05      0.3058717342E+01
                                                   Max.-Head-Change                        Max.-Flux-Residual
  Residual-Control   Outer-Iter.   Inner-Iter.     Column Row Layer    Max.-Head-Change    Column Row Layer    Max.-Flux-Residual            L2-New               L2-Old           Solver-Max-Delh
          0                13           2            27   89     1       0.3058716680E+01      19  118    1      -0.1715045640E+05      0.2190280150E+05      0.2569534468E+05      0.3058716680E+01
          1                13           0            27   89     1       0.2141101640E+01      28   88    1      -0.1521851997E+07      0.1687813112E+07      0.2190280150E+05      0.3058716680E+01
          2                13           0            27   89     1       0.1498771122E+01      28   88    1      -0.6046953160E+06      0.6047405177E+06      0.1687813112E+07      0.3058716680E+01
          0                14           2            27   89     1       0.3058645943E+01      19  118    1      -0.9166584130E+04      0.1173915687E+05      0.6047405177E+06      0.3058645943E+01
          1                14           0            27   89     1       0.2141052124E+01      28   88    1      -0.3020024142E+07      0.4165877250E+07      0.1173915687E+05      0.3058645943E+01
          2                14           0            27   89     1       0.1498736461E+01      28   88    1      -0.2102936248E+07      0.2520389986E+07      0.4165877250E+07      0.3058645943E+01
          3                14           0            27   89     1       0.1049115505E+01      28   88    1      -0.1460867054E+07      0.1606017545E+07      0.2520389986E+07      0.3058645943E+01
          4                14           0            27   89     1       0.7343808410E+00      28   88    1      -0.1011410051E+07      0.1040435498E+07      0.1606017545E+07      0.3058645943E+01
          5                14           0            27   89     1       0.5140665799E+00      28   88    1      -0.6967937560E+06      0.6968528941E+06      0.1040435498E+07      0.3058645943E+01
          6                14           0            27   89     1       0.3598465998E+00      28   88    1      -0.4765641187E+06      0.4766664172E+06      0.6968528941E+06      0.3058645943E+01
                                                   Max.-Head-Change                        Max.-Flux-Residual
  Residual-Control   Outer-Iter.   Inner-Iter.     Column Row Layer    Max.-Head-Change    Column Row Layer    Max.-Flux-Residual            L2-New               L2-Old           Solver-Max-Delh
          7                14           0            27   89     1       0.2518926156E+00      28   88    1      -0.3224042403E+06      0.3225729994E+06      0.4766664172E+06      0.3058645943E+01
          8                14           0            27   89     1       0.1763248279E+00      28   88    1      -0.2144927510E+06      0.2147656693E+06      0.3225729994E+06      0.3058645943E+01
          9                14           0            27   89     1       0.1234273774E+00      28   88    1      -0.1389549175E+06      0.1393973447E+06      0.2147656693E+06      0.3058645943E+01
         10                14           0            27   89     1       0.8639916274E-01      28   88    1      -0.8607853674E+05      0.8681563049E+05      0.1393973447E+06      0.3058645943E+01
         11                14           0            27   89     1       0.6047941288E-01      28   88    1      -0.4906512069E+05      0.5037728997E+05      0.8681563049E+05      0.3058645943E+01
         12                14           0            27   89     1       0.4233558830E-01      28   88    1      -0.2315575432E+05      0.2586171041E+05      0.5037728997E+05      0.3058645943E+01
          0                15           2            27   89     1       0.3058643946E+01      19  118    1      -0.9046044350E+04      0.1262338444E+05      0.2586171041E+05      0.3058643946E+01
          1                15           0            27   89     1       0.2141050726E+01      27   90    1      -0.2116471333E+07      0.2946720532E+07      0.1262338444E+05      0.3058643946E+01
          2                15           0            27   89     1       0.1498735482E+01      27   90    1      -0.1279052722E+07      0.1447355649E+07      0.2946720532E+07      0.3058643946E+01
          3                15           0            27   89     1       0.1049114820E+01      27   90    1      -0.6928693741E+06      0.7104661450E+06      0.1447355649E+07      0.3058643946E+01
                                                   Max.-Head-Change                        Max.-Flux-Residual
  Residual-Control   Outer-Iter.   Inner-Iter.     Column Row Layer    Max.-Head-Change    Column Row Layer    Max.-Flux-Residual            L2-New               L2-Old           Solver-Max-Delh
          4                15           0            27   89     1       0.7343803614E+00      27   90    1      -0.2825457762E+06      0.2826750675E+06      0.7104661450E+06      0.3058643946E+01
          0                16           2            27   89     1       0.3058609297E+01      19  118    1      -0.6982556718E+04      0.9764412315E+04      0.2826750675E+06      0.3058609297E+01
          1                16           0            27   89     1       0.2141026471E+01      27   90    1      -0.2786675276E+07      0.4344824024E+07      0.9764412315E+04      0.3058609297E+01
          2                16           0            27   89     1       0.1498718504E+01      27   90    1      -0.1949250174E+07      0.2616911087E+07      0.4344824024E+07      0.3058609297E+01
          3                16           0            27   89     1       0.1049102935E+01      27   90    1      -0.1363062283E+07      0.1578926452E+07      0.2616911087E+07      0.3058609297E+01
          4                16           0            27   89     1       0.7343720421E+00      27   90    1      -0.9527355047E+06      0.1009446359E+07      0.1578926452E+07      0.3058609297E+01
          5                16           0            27   89     1       0.5140604207E+00      27   90    1      -0.6655090865E+06      0.6797921695E+06      0.1009446359E+07      0.3058609297E+01
          6                16           0            27   89     1       0.3598422884E+00      27   90    1      -0.4644517348E+06      0.4645285003E+06      0.6797921695E+06      0.3058609297E+01
          7                16           0            27   89     1       0.2518895976E+00      27   90    1      -0.3237121485E+06      0.3238288766E+06      0.4645285003E+06      0.3058609297E+01
          8                16           0            27   89     1       0.1763227153E+00      27   90    1      -0.2251947129E+06      0.2253749990E+06      0.3238288766E+06      0.3058609297E+01
                                                   Max.-Head-Change                        Max.-Flux-Residual
  Residual-Control   Outer-Iter.   Inner-Iter.     Column Row Layer    Max.-Head-Change    Column Row Layer    Max.-Flux-Residual            L2-New               L2-Old           Solver-Max-Delh
          9                16           0            27   89     1       0.1234258986E+00      27   90    1      -0.1562326430E+06      0.1565054489E+06      0.2253749990E+06      0.3058609297E+01
         10                16           0            27   89     1       0.8639812755E-01      27   90    1      -0.1079592605E+06      0.1083671719E+06      0.1565054489E+06      0.3058609297E+01
         11                16           0            27   89     1       0.6047868826E-01      27   90    1      -0.7416792545E+05      0.7477434668E+05      0.1083671719E+06      0.3058609297E+01
         12                16           0            27   89     1       0.4233508106E-01      27   90    1      -0.5051400707E+05      0.5141457201E+05      0.7477434668E+05      0.3058609297E+01
         13                16           0            27   89     1       0.2963455624E-01      27   90    1      -0.3395627219E+05      0.3529673519E+05      0.5141457201E+05      0.3058609297E+01
         14                16           0            27   89     1       0.2074418901E-01      27   90    1      -0.2236586176E+05      0.2436787011E+05      0.3529673519E+05      0.3058609297E+01
         15                16           0            27   89     1       0.1452093206E-01      27   90    1      -0.1425257645E+05      0.1723978730E+05      0.2436787011E+05      0.3058609297E+01
         16                16           0            27   89     1       0.1016465227E-01      27   90    1      -0.8573277738E+04      0.1295899050E+05      0.1723978730E+05      0.3058609297E+01
         17                16           0            27   89     1       0.7115256468E-02      19  118    1      -0.6960510270E+04      0.1076226175E+05      0.1295899050E+05      0.3058609297E+01
          0                17           2            27   87     1       0.3058559653E+01      19  118    1      -0.6967124205E+04      0.9907453883E+04      0.1076226175E+05      0.3058559653E+01
                                                   Max.-Head-Change                        Max.-Flux-Residual
  Residual-Control   Outer-Iter.   Inner-Iter.     Column Row Layer    Max.-Head-Change    Column Row Layer    Max.-Flux-Residual            L2-New               L2-Old           Solver-Max-Delh
          1                17           0            27   87     1       0.2140991721E+01      26   89    1      -0.2019010370E+07      0.3346562999E+07      0.9907453883E+04      0.3058559653E+01
          2                17           0            27   87     1       0.1498694179E+01      26   89    1      -0.1102046220E+07      0.1757753608E+07      0.3346562999E+07      0.3058559653E+01
          3                17           0            27   87     1       0.1049085908E+01      29   90    1      -0.6165983785E+06      0.8064532118E+06      0.1757753608E+07      0.3058559653E+01
          4                17           0            27   87     1       0.7343601228E+00      29   90    1      -0.3379041146E+06      0.3381456874E+06      0.8064532118E+06      0.3058559653E+01
          5                17           0            27   87     1       0.5140520772E+00      29   90    1      -0.1428204418E+06      0.1430260933E+06      0.3381456874E+06      0.3058559653E+01
          0                18           2            27   87     1       0.3058543223E+01      29   90    1      -0.6263004242E+04      0.1042969674E+05      0.1430260933E+06      0.3058543223E+01
          1                18           0            27   87     1       0.2140980220E+01      26   89    1      -0.2532715851E+07      0.3822753800E+07      0.1042969674E+05      0.3058543223E+01
          2                18           0            27   87     1       0.1498686128E+01      26   89    1      -0.1615747004E+07      0.2270220443E+07      0.3822753800E+07      0.3058543223E+01
          3                18           0            27   87     1       0.1049080272E+01      26   89    1      -0.9738788029E+06      0.1238977617E+07      0.2270220443E+07      0.3058543223E+01
          4                18           0            27   87     1       0.7343561778E+00      26   89    1      -0.5245759609E+06      0.6073616191E+06      0.1238977617E+07      0.3058543223E+01
                                                   Max.-Head-Change                        Max.-Flux-Residual
  Residual-Control   Outer-Iter.   Inner-Iter.     Column Row Layer    Max.-Head-Change    Column Row Layer    Max.-Flux-Residual            L2-New               L2-Old           Solver-Max-Delh
          5                18           0            27   87     1       0.5140493157E+00      26   89    1      -0.2100663734E+06      0.2102214743E+06      0.6073616191E+06      0.3058543223E+01
          0                19           2            27   87     1       0.3058526793E+01      29   90    1      -0.5263017318E+04      0.8779345006E+04      0.2102214743E+06      0.3058526793E+01
          1                19           0            27   87     1       0.2140968718E+01      26   89    1      -0.3046423964E+07      0.4703322860E+07      0.8779345006E+04      0.3058526793E+01
          2                19           0            27   87     1       0.1498678077E+01      26   89    1      -0.2129450419E+07      0.3135555853E+07      0.4703322860E+07      0.3058526793E+01
          3                19           0            27   87     1       0.1049074636E+01      26   89    1      -0.1487578930E+07      0.2057624640E+07      0.3135555853E+07      0.3058526793E+01
          4                19           0            27   87     1       0.7343522329E+00      26   89    1      -0.1038273786E+07      0.1336629550E+07      0.2057624640E+07      0.3058526793E+01
          5                19           0            27   87     1       0.5140465543E+00      26   89    1      -0.7237625873E+06      0.8826940740E+06      0.1336629550E+07      0.3058526793E+01
          6                19           0            27   87     1       0.3598325819E+00      26   89    1      -0.5036059262E+06      0.5787419732E+06      0.8826940740E+06      0.3058526793E+01
          7                19           0            27   87     1       0.2518828030E+00      26   89    1      -0.3494968414E+06      0.3733092897E+06      0.5787419732E+06      0.3058526793E+01
          8                19           0            27   87     1       0.1763179591E+00      26   89    1      -0.2416207659E+06      0.2428556810E+06      0.3733092897E+06      0.3058526793E+01
                                                   Max.-Head-Change                        Max.-Flux-Residual
  Residual-Control   Outer-Iter.   Inner-Iter.     Column Row Layer    Max.-Head-Change    Column Row Layer    Max.-Flux-Residual            L2-New               L2-Old           Solver-Max-Delh
          9                19           0            27   87     1       0.1234225693E+00      26   89    1      -0.1661076525E+06      0.1663150741E+06      0.2428556810E+06      0.3058526793E+01
         10                19           0            27   87     1       0.8639579702E-01      26   89    1      -0.1132485417E+06      0.1135629638E+06      0.1663150741E+06      0.3058526793E+01
         11                19           0            27   87     1       0.6047705688E-01      26   89    1      -0.7624719789E+05      0.7672437389E+05      0.1135629638E+06      0.3058526793E+01
         12                19           0            27   87     1       0.4233393910E-01      26   89    1      -0.5034627396E+05      0.5107768726E+05      0.7672437389E+05      0.3058526793E+01
         13                19           0            27   87     1       0.2963375686E-01      26   89    1      -0.3221563547E+05      0.3335967801E+05      0.5107768726E+05      0.3058526793E+01
         14                19           0            27   87     1       0.2074362945E-01      26   89    1      -0.1952419265E+05      0.2137299128E+05      0.3335967801E+05      0.3058526793E+01
         15                19           0            27   87     1       0.1452054037E-01      26   89    1      -0.1064018474E+05      0.1375639743E+05      0.2137299128E+05      0.3058526793E+01
         16                19           0            27   87     1       0.1016437808E-01      29   90    1      -0.5239280041E+04      0.9791029890E+04      0.1375639743E+05      0.3058526793E+01
          0                20           2            27   87     1       0.3058526468E+01      29   90    1      -0.5246401224E+04      0.8747810015E+04      0.9791029890E+04      0.3058526468E+01
          1                20           0            27   87     1       0.2140968491E+01      28   87    1      -0.2838192461E+07      0.3598771213E+07      0.8747810015E+04      0.3058526468E+01
                                                   Max.-Head-Change                        Max.-Flux-Residual
  Residual-Control   Outer-Iter.   Inner-Iter.     Column Row Layer    Max.-Head-Change    Column Row Layer    Max.-Flux-Residual            L2-New               L2-Old           Solver-Max-Delh
          2                20           0            27   87     1       0.1498677918E+01      28   87    1      -0.1921161148E+07      0.2316374392E+07      0.3598771213E+07      0.3058526468E+01
          3                20           0            27   87     1       0.1049074525E+01      28   87    1      -0.1279254228E+07      0.1435657551E+07      0.2316374392E+07      0.3058526468E+01
          4                20           0            27   87     1       0.7343521549E+00      28   87    1      -0.8299267370E+06      0.8541459404E+06      0.1435657551E+07      0.3058526468E+01
          5                20           0            27   87     1       0.5140464997E+00      28   87    1      -0.5154010973E+06      0.5154450951E+06      0.8541459404E+06      0.3058526468E+01
          6                20           0            27   87     1       0.3598325436E+00      28   87    1      -0.2952349168E+06      0.2953261675E+06      0.5154450951E+06      0.3058526468E+01
          7                20           0            27   87     1       0.2518827763E+00      28   87    1      -0.1411194571E+06      0.1413329814E+06      0.2953261675E+06      0.3058526468E+01
          8                20           0            27   87     1       0.1763179404E+00      28   87    1      -0.3323906058E+05      0.3420321072E+05      0.1413329814E+06      0.3058526468E+01
          0                21           2            27   87     1       0.3058520832E+01      29   90    1      -0.4959074561E+04      0.8273968937E+04      0.3420321072E+05      0.3058520832E+01
          1                21           0            27   87     1       0.2140964546E+01      28   87    1      -0.3014424082E+07      0.3846488479E+07      0.8273968937E+04      0.3058520832E+01
          2                21           0            27   87     1       0.1498675157E+01      28   87    1      -0.2097384328E+07      0.2561515521E+07      0.3846488479E+07      0.3058520832E+01
                                                   Max.-Head-Change                        Max.-Flux-Residual
  Residual-Control   Outer-Iter.   Inner-Iter.     Column Row Layer    Max.-Head-Change    Column Row Layer    Max.-Flux-Residual            L2-New               L2-Old           Solver-Max-Delh
          3                21           0            27   87     1       0.1049072592E+01      28   87    1      -0.1455471500E+07      0.1674507868E+07      0.2561515521E+07      0.3058520832E+01
          4                21           0            27   87     1       0.7343508018E+00      28   87    1      -0.1006139873E+07      0.1074902666E+07      0.1674507868E+07      0.3058520832E+01
          5                21           0            27   87     1       0.5140455525E+00      28   87    1      -0.6916113385E+06      0.6945426674E+06      0.1074902666E+07      0.3058520832E+01
          6                21           0            27   87     1       0.3598318806E+00      28   87    1      -0.4714431314E+06      0.4714940778E+06      0.6945426674E+06      0.3058520832E+01
          7                21           0            27   87     1       0.2518823121E+00      28   87    1      -0.3173262532E+06      0.3174109679E+06      0.4714940778E+06      0.3058520832E+01
          8                21           0            27   87     1       0.1763176155E+00      28   87    1      -0.2094448637E+06      0.2095832335E+06      0.3174109679E+06      0.3058520832E+01
          9                21           0            27   87     1       0.1234223287E+00      28   87    1      -0.1339280998E+06      0.1341557287E+06      0.2095832335E+06      0.3058520832E+01
         10                21           0            27   87     1       0.8639562865E-01      28   87    1      -0.8106646759E+05      0.8145534292E+05      0.1341557287E+06      0.3058520832E+01
         11                21           0            27   87     1       0.6047693902E-01      28   87    1      -0.4406337551E+05      0.4479206240E+05      0.8145534292E+05      0.3058520832E+01
         12                21           0            27   87     1       0.4233385660E-01      28   87    1      -0.1816123591E+05      0.1989151956E+05      0.4479206240E+05      0.3058520832E+01
                                                   Max.-Head-Change                        Max.-Flux-Residual
  Residual-Control   Outer-Iter.   Inner-Iter.     Column Row Layer    Max.-Head-Change    Column Row Layer    Max.-Flux-Residual            L2-New               L2-Old           Solver-Max-Delh
          0                22           2            27   87     1       0.3058472451E+01      29   90    1      -0.4893864949E+04      0.8161769353E+04      0.1989151956E+05      0.3058472451E+01
          1                22           0            27   87     1       0.2140930679E+01      27   89    1      -0.2430713303E+07      0.2431708654E+07      0.8161769353E+04      0.3058472451E+01
          2                22           0            27   87     1       0.1498651450E+01      27   89    1      -0.1512833565E+07      0.1512844895E+07      0.2431708654E+07      0.3058472451E+01
          3                22           0            27   87     1       0.1049055997E+01      27   89    1      -0.8703327845E+06      0.8703438432E+06      0.1512844895E+07      0.3058472451E+01
          4                22           0            27   87     1       0.7343391855E+00      27   89    1      -0.4205896089E+06      0.4206258085E+06      0.8703438432E+06      0.3058472451E+01
          5                22           0            27   87     1       0.5140374211E+00      27   89    1      -0.1057729992E+06      0.1059612912E+06      0.4206258085E+06      0.3058472451E+01
          0                23           2            27   87     1       0.3058448908E+01      29   90    1      -0.4112450827E+04      0.6874347163E+04      0.1059612912E+06      0.3058448908E+01
          1                23           0            27   87     1       0.2140914199E+01      27   89    1      -0.2944943023E+07      0.2946837553E+07      0.6874347163E+04      0.3058448908E+01
          2                23           0            27   87     1       0.1498639914E+01      27   89    1      -0.2027051560E+07      0.2027472187E+07      0.2946837553E+07      0.3058448908E+01
          3                23           0            27   87     1       0.1049047922E+01      27   89    1      -0.1384542573E+07      0.1384547508E+07      0.2027472187E+07      0.3058448908E+01
                                                   Max.-Head-Change                        Max.-Flux-Residual
  Residual-Control   Outer-Iter.   Inner-Iter.     Column Row Layer    Max.-Head-Change    Column Row Layer    Max.-Flux-Residual            L2-New               L2-Old           Solver-Max-Delh
          4                23           0            27   87     1       0.7343335328E+00      27   89    1      -0.9347936523E+06      0.9348051732E+06      0.1384547508E+07      0.3058448908E+01
          5                23           0            27   87     1       0.5140334642E+00      27   89    1      -0.6199730210E+06      0.6199957406E+06      0.9348051732E+06      0.3058448908E+01
          6                23           0            27   87     1       0.3598234188E+00      27   89    1      -0.3996003506E+06      0.3996420936E+06      0.6199957406E+06      0.3058448908E+01
          7                23           0            27   87     1       0.2518763889E+00      27   89    1      -0.2453403502E+06      0.2454162843E+06      0.3996420936E+06      0.3058448908E+01
          8                23           0            27   87     1       0.1763134692E+00      27   89    1      -0.1373587762E+06      0.1375047699E+06      0.2454162843E+06      0.3058448908E+01
          9                23           0            27   87     1       0.1234194263E+00      27   89    1      -0.6177188370E+05      0.6211249977E+05      0.1375047699E+06      0.3058448908E+01
         10                23           0            27   87     1       0.8639359697E-01      27   89    1      -0.8861161740E+04      0.1105426730E+05      0.6211249977E+05      0.3058448908E+01
          0                24           2            27   87     1       0.3058444932E+01      29   90    1      -0.4002087652E+04      0.6692786541E+04      0.1105426730E+05      0.3058444932E+01
          1                24           0            27   87     1       0.2140911416E+01      27   89    1      -0.3031369335E+07      0.3033427169E+07      0.6692786541E+04      0.3058444932E+01
          2                24           0            27   87     1       0.1498637965E+01      27   89    1      -0.2113476148E+07      0.2114006495E+07      0.3033427169E+07      0.3058444932E+01
                                                   Max.-Head-Change                        Max.-Flux-Residual
  Residual-Control   Outer-Iter.   Inner-Iter.     Column Row Layer    Max.-Head-Change    Column Row Layer    Max.-Flux-Residual            L2-New               L2-Old           Solver-Max-Delh
          3                24           0            27   87     1       0.1049046558E+01      27   89    1      -0.1470965953E+07      0.1470972003E+07      0.2114006495E+07      0.3058444932E+01
          4                24           0            27   87     1       0.7343325781E+00      27   89    1      -0.1021216187E+07      0.1021226179E+07      0.1470972003E+07      0.3058444932E+01
          5                24           0            27   87     1       0.5140327959E+00      27   89    1      -0.7063949645E+06      0.7064138511E+06      0.1021226179E+07      0.3058444932E+01
          6                24           0            27   87     1       0.3598229510E+00      27   89    1      -0.4860218800E+06      0.4860543850E+06      0.7064138511E+06      0.3058444932E+01
          7                24           0            27   87     1       0.2518760614E+00      27   89    1      -0.3317615897E+06      0.3318147742E+06      0.4860543850E+06      0.3058444932E+01
          8                24           0            27   87     1       0.1763132400E+00      27   89    1      -0.2237798128E+06      0.2238647081E+06      0.3318147742E+06      0.3058444932E+01
          9                24           0            27   87     1       0.1234192659E+00      27   89    1      -0.1481927782E+06      0.1483275471E+06      0.2238647081E+06      0.3058444932E+01
         10                24           0            27   87     1       0.8639348465E-01      27   89    1      -0.9528195681E+05      0.9549876496E+05      0.1483275471E+06      0.3058444932E+01
         11                24           0            27   87     1       0.6047543822E-01      27   89    1      -0.5824443240E+05      0.5860692914E+05      0.9549876496E+05      0.3058444932E+01
         12                24           0            27   87     1       0.4233280604E-01      27   89    1      -0.3231819022E+05      0.3297768391E+05      0.5860692914E+05      0.3058444932E+01
                                                   Max.-Head-Change                        Max.-Flux-Residual
  Residual-Control   Outer-Iter.   Inner-Iter.     Column Row Layer    Max.-Head-Change    Column Row Layer    Max.-Flux-Residual            L2-New               L2-Old           Solver-Max-Delh
         13                24           0            27   87     1       0.2963296372E-01      27   89    1      -0.1416983299E+05      0.1563146471E+05      0.3297768391E+05      0.3058444932E+01
          0                25           2            27   87     1       0.3058443567E+01      29   90    1      -0.3965248584E+04      0.6786514842E+04      0.1563146471E+05      0.3058443567E+01
          1                25           0            27   87     1       0.2140910460E+01      32  105    1      -0.1137909924E+06      0.1137944533E+06      0.6786514842E+04      0.3058443567E+01
          2                25           0            27   87     1       0.1498637297E+01      32  105    1      -0.4937303212E+05      0.4943129953E+05      0.1137944533E+06      0.3058443567E+01
          0                26           2            27   87     1       0.3058374525E+01      32  105    1      -0.4280559164E+04      0.5652610042E+04      0.4943129953E+05      0.3058374525E+01
          1                26           0            27   87     1       0.2140862131E+01      27   88    1      -0.4923505430E+06      0.4923512373E+06      0.5652610042E+04      0.3058374525E+01
          0                27           2            27   87     1       0.3058274752E+01      32  105    1      -0.1433987456E+04      0.2042923944E+04      0.4923512373E+06      0.3058274752E+01
          1                27           0            27   87     1       0.2140792290E+01      27   88    1      -0.2633253006E+07      0.2650342506E+07      0.2042923944E+04      0.3058274752E+01
          2                27           0            27   87     1       0.1498554577E+01      27   88    1      -0.1715684079E+07      0.1715684418E+07      0.2650342506E+07      0.3058274752E+01
          3                27           0            27   87     1       0.1048988186E+01      27   88    1      -0.1073405848E+07      0.1073406590E+07      0.1715684418E+07      0.3058274752E+01
                                                   Max.-Head-Change                        Max.-Flux-Residual
  Residual-Control   Outer-Iter.   Inner-Iter.     Column Row Layer    Max.-Head-Change    Column Row Layer    Max.-Flux-Residual            L2-New               L2-Old           Solver-Max-Delh
          4                27           0            27   87     1       0.7342917178E+00      27   88    1      -0.6238208985E+06      0.6238226121E+06      0.1073406590E+07      0.3058274752E+01
          5                27           0            27   87     1       0.5140041937E+00      27   88    1      -0.3091162427E+06      0.3091205144E+06      0.6238226121E+06      0.3058274752E+01
          6                27           0            27   87     1       0.3598029295E+00      27   88    1      -0.8882534123E+05      0.8884251492E+05      0.3091205144E+06      0.3058274752E+01
          0                28           2            27   87     1       0.3058257837E+01      32  105    1      -0.1273713951E+04      0.1852724124E+04      0.8884251492E+05      0.3058257837E+01
          1                28           0            27   87     1       0.2140780449E+01      27   88    1      -0.2993077023E+07      0.3038558013E+07      0.1852724124E+04      0.3058257837E+01
          2                28           0            27   87     1       0.1498546289E+01      27   88    1      -0.2075501510E+07      0.2075510571E+07      0.3038558013E+07      0.3058257837E+01
          3                28           0            27   87     1       0.1048982384E+01      27   88    1      -0.1433218669E+07      0.1433219174E+07      0.2075510571E+07      0.3058257837E+01
          4                28           0            27   87     1       0.7342876565E+00      27   88    1      -0.9836304912E+06      0.9836314185E+06      0.1433219174E+07      0.3058257837E+01
          5                28           0            27   87     1       0.5140013508E+00      27   88    1      -0.6689235759E+06      0.6689252132E+06      0.9836314185E+06      0.3058257837E+01
          6                28           0            27   87     1       0.3598009394E+00      27   88    1      -0.4486310927E+06      0.4486338750E+06      0.6689252132E+06      0.3058257837E+01
                                                   Max.-Head-Change                        Max.-Flux-Residual
  Residual-Control   Outer-Iter.   Inner-Iter.     Column Row Layer    Max.-Head-Change    Column Row Layer    Max.-Flux-Residual            L2-New               L2-Old           Solver-Max-Delh
          7                28           0            27   87     1       0.2518606533E+00      27   88    1      -0.2944275105E+06      0.2944321544E+06      0.4486338750E+06      0.3058257837E+01
          8                28           0            27   87     1       0.1763024543E+00      27   88    1      -0.1864855699E+06      0.1864933802E+06      0.2944321544E+06      0.3058257837E+01
          9                28           0            27   87     1       0.1234117159E+00      27   88    1      -0.1109264898E+06      0.1109402083E+06      0.1864933802E+06      0.3058257837E+01
         10                28           0            27   87     1       0.8638819968E-01      27   88    1      -0.5803527023E+05      0.5806229865E+05      0.1109402083E+06      0.3058257837E+01
         11                28           0            27   87     1       0.6047173874E-01      27   88    1      -0.2101148368E+05      0.2108761994E+05      0.5806229865E+05      0.3058257837E+01
          0                29           2            27   87     1       0.3058254992E+01      32  105    1      -0.1249787239E+04      0.1824691277E+04      0.2108761994E+05      0.3058254992E+01
          1                29           0            27   87     1       0.2140778458E+01      27   88    1      -0.3053552713E+07      0.3107529064E+07      0.1824691277E+04      0.3058254992E+01
          2                29           0            27   87     1       0.1498544895E+01      27   88    1      -0.2135976093E+07      0.2136313693E+07      0.3107529064E+07      0.3058254992E+01
          3                29           0            27   87     1       0.1048981409E+01      27   88    1      -0.1493692477E+07      0.1493692956E+07      0.2136313693E+07      0.3058254992E+01
          4                29           0            27   87     1       0.7342869736E+00      27   88    1      -0.1044103757E+07      0.1044104611E+07      0.1493692956E+07      0.3058254992E+01
                                                   Max.-Head-Change                        Max.-Flux-Residual
  Residual-Control   Outer-Iter.   Inner-Iter.     Column Row Layer    Max.-Head-Change    Column Row Layer    Max.-Flux-Residual            L2-New               L2-Old           Solver-Max-Delh
          5                29           0            27   87     1       0.5140008728E+00      27   88    1      -0.7293964619E+06      0.7293979226E+06      0.1044104611E+07      0.3058254992E+01
          6                29           0            27   87     1       0.3598006048E+00      27   88    1      -0.5091037129E+06      0.5091060913E+06      0.7293979226E+06      0.3058254992E+01
          7                29           0            27   87     1       0.2518604191E+00      27   88    1      -0.3548999446E+06      0.3549036763E+06      0.5091060913E+06      0.3058254992E+01
          8                29           0            27   87     1       0.1763022904E+00      27   88    1      -0.2469578738E+06      0.2469635815E+06      0.3549036763E+06      0.3058254992E+01
          9                29           0            27   87     1       0.1234116011E+00      27   88    1      -0.1713987024E+06      0.1714072904E+06      0.2469635815E+06      0.3058254992E+01
         10                29           0            27   87     1       0.8638811933E-01      27   88    1      -0.1185074191E+06      0.1185202197E+06      0.1714072904E+06      0.3058254992E+01
         11                29           0            27   87     1       0.6047168250E-01      27   88    1      -0.8148358782E+05      0.8150259879E+05      0.1185202197E+06      0.3058254992E+01
         12                29           0            27   87     1       0.4233017703E-01      27   88    1      -0.5556693897E+05      0.5559522436E+05      0.8150259879E+05      0.3058254992E+01
         13                29           0            27   87     1       0.2963112342E-01      27   88    1      -0.3742530106E+05      0.3746771623E+05      0.5559522436E+05      0.3058254992E+01
         14                29           0            27   87     1       0.2074178604E-01      27   88    1      -0.2472616255E+05      0.2479077462E+05      0.3746771623E+05      0.3058254992E+01
                                                   Max.-Head-Change                        Max.-Flux-Residual
  Residual-Control   Outer-Iter.   Inner-Iter.     Column Row Layer    Max.-Head-Change    Column Row Layer    Max.-Flux-Residual            L2-New               L2-Old           Solver-Max-Delh
         15                29           0            27   87     1       0.1451924998E-01      27   88    1      -0.1583676959E+05      0.1593796388E+05      0.2479077462E+05      0.3058254992E+01
         16                29           0            27   87     1       0.1016347481E-01      27   88    1      -0.9614196493E+04      0.9780565154E+04      0.1593796388E+05      0.3058254992E+01
         17                29           0            27   87     1       0.7114432248E-02      27   88    1      -0.5258396322E+04      0.5557455524E+04      0.9780565154E+04      0.3058254992E+01
         18                29           0            27   87     1       0.4980102489E-02      27   88    1      -0.2209336706E+04      0.2849787244E+04      0.5557455524E+04      0.3058254992E+01
          0                30           2            27   87     1       0.3058200855E+01      32  105    1      -0.1247853767E+04      0.1802671462E+04      0.2849787244E+04      0.3058200855E+01
          1                30           0            27   87     1       0.2140740562E+01      28   90    1      -0.5250078907E+06      0.5812281376E+06      0.1802671462E+04      0.3058200855E+01
          2                30           0            27   87     1       0.1498518368E+01      28   90    1      -0.4059145600E+05      0.4060202829E+05      0.5812281376E+06      0.3058200855E+01
          0                31           2            27   87     1       0.3058112818E+01      32  105    1      -0.6669533917E+03      0.1160412240E+04      0.4060202829E+05      0.3058112818E+01
          1                31           0            27   87     1       0.2140678936E+01      27   87    1      -0.1748280057E+07      0.2607155555E+07      0.1160412240E+04      0.3058112818E+01
          2                31           0            27   87     1       0.1498475230E+01      28   90    1      -0.8317848441E+06      0.1277465609E+07      0.2607155555E+07      0.3058112818E+01
                                                   Max.-Head-Change                        Max.-Flux-Residual
  Residual-Control   Outer-Iter.   Inner-Iter.     Column Row Layer    Max.-Head-Change    Column Row Layer    Max.-Flux-Residual            L2-New               L2-Old           Solver-Max-Delh
          3                31           0            27   87     1       0.1048932643E+01      28   90    1      -0.4926947570E+06      0.5274017883E+06      0.1277465609E+07      0.3058112818E+01
          4                31           0            27   87     1       0.7342528376E+00      28   90    1      -0.2553351170E+06      0.2553368468E+06      0.5274017883E+06      0.3058112818E+01
          5                31           0            27   87     1       0.5139769776E+00      28   90    1      -0.8918504604E+05      0.8919068320E+05      0.2553368468E+06      0.3058112818E+01
          0                32           2            27   87     1       0.3058081731E+01      32  105    1      -0.5604576796E+03      0.1059684212E+04      0.8919068320E+05      0.3058081731E+01
          1                32           0            27   87     1       0.2140657175E+01      27   87    1      -0.2262401216E+07      0.3371511786E+07      0.1059684212E+04      0.3058081731E+01
          2                32           0            27   87     1       0.1498459997E+01      27   87    1      -0.1344669348E+07      0.2013234329E+07      0.3371511786E+07      0.3058081731E+01
          3                32           0            27   87     1       0.1048921980E+01      28   90    1      -0.7640726581E+06      0.1102463161E+07      0.2013234329E+07      0.3058081731E+01
          4                32           0            27   87     1       0.7342453735E+00      28   90    1      -0.5267118140E+06      0.5841519288E+06      0.1102463161E+07      0.3058081731E+01
          5                32           0            27   87     1       0.5139717527E+00      28   90    1      -0.3605609003E+06      0.3605620806E+06      0.5841519288E+06      0.3058081731E+01
          6                32           0            27   87     1       0.3597802208E+00      28   90    1      -0.2442560830E+06      0.2442579591E+06      0.3605620806E+06      0.3058081731E+01
                                                   Max.-Head-Change                        Max.-Flux-Residual
  Residual-Control   Outer-Iter.   Inner-Iter.     Column Row Layer    Max.-Head-Change    Column Row Layer    Max.-Flux-Residual            L2-New               L2-Old           Solver-Max-Delh
          7                32           0            27   87     1       0.2518461502E+00      28   90    1      -0.1628431143E+06      0.1628460860E+06      0.2442579591E+06      0.3058081731E+01
          8                32           0            27   87     1       0.1762923022E+00      28   90    1      -0.1058542341E+06      0.1058589884E+06      0.1628460860E+06      0.3058081731E+01
          9                32           0            27   87     1       0.1234046094E+00      28   90    1      -0.6596211519E+05      0.6596995980E+05      0.1058589884E+06      0.3058081731E+01
         10                32           0            27   87     1       0.8638322512E-01      28   90    1      -0.3803767972E+05      0.3805155153E+05      0.6596995980E+05      0.3058081731E+01
         11                32           0            27   87     1       0.6046825655E-01      28   90    1      -0.1849059839E+05      0.1851951462E+05      0.3805155153E+05      0.3058081731E+01
         12                32           0            27   87     1       0.4232777887E-01      28   90    1      -0.4807653054E+04      0.4918756474E+04      0.1851951462E+05      0.3058081731E+01
          0                33           2            27   87     1       0.3058079157E+01      32  105    1      -0.5530876325E+03      0.1053038658E+04      0.4918756474E+04      0.3058079157E+01
          1                33           0            27   87     1       0.2140655373E+01      27   87    1      -0.2304741208E+07      0.3434688086E+07      0.1053038658E+04      0.3058079157E+01
          2                33           0            27   87     1       0.1498458736E+01      27   87    1      -0.1387008947E+07      0.2075127036E+07      0.3434688086E+07      0.3058079157E+01
          3                33           0            27   87     1       0.1048921097E+01      28   90    1      -0.7864217602E+06      0.1159571158E+07      0.2075127036E+07      0.3058079157E+01
                                                   Max.-Head-Change                        Max.-Flux-Residual
  Residual-Control   Outer-Iter.   Inner-Iter.     Column Row Layer    Max.-Head-Change    Column Row Layer    Max.-Flux-Residual            L2-New               L2-Old           Solver-Max-Delh
          4                33           0            27   87     1       0.7342447556E+00      28   90    1      -0.5490608190E+06      0.6232642812E+06      0.1159571158E+07      0.3058079157E+01
          5                33           0            27   87     1       0.5139713201E+00      28   90    1      -0.3829098373E+06      0.3829109367E+06      0.6232642812E+06      0.3058079157E+01
          6                33           0            27   87     1       0.3597799180E+00      28   90    1      -0.2666049724E+06      0.2666066697E+06      0.3829109367E+06      0.3058079157E+01
          7                33           0            27   87     1       0.2518459383E+00      28   90    1      -0.1851919703E+06      0.1851945478E+06      0.2666066697E+06      0.3058079157E+01
          8                33           0            27   87     1       0.1762921538E+00      28   90    1      -0.1282030668E+06      0.1282069360E+06      0.1851945478E+06      0.3058079157E+01
          9                33           0            27   87     1       0.1234045056E+00      28   90    1      -0.8831093157E+05      0.8831670425E+05      0.1282069360E+06      0.3058079157E+01
         10                33           0            27   87     1       0.8638315242E-01      28   90    1      -0.6038648466E+05      0.6039509130E+05      0.8831670425E+05      0.3058079157E+01
         11                33           0            27   87     1       0.6046820566E-01      28   90    1      -0.4083939534E+05      0.4085229471E+05      0.6039509130E+05      0.3058079157E+01
         12                33           0            27   87     1       0.4232774324E-01      28   90    1      -0.2715644440E+05      0.2717602569E+05      0.4085229471E+05      0.3058079157E+01
         13                33           0            27   87     1       0.2962941977E-01      28   90    1      -0.1757838446E+05      0.1760882352E+05      0.2717602569E+05      0.3058079157E+01
                                                   Max.-Head-Change                        Max.-Flux-Residual
  Residual-Control   Outer-Iter.   Inner-Iter.     Column Row Layer    Max.-Head-Change    Column Row Layer    Max.-Flux-Residual            L2-New               L2-Old           Solver-Max-Delh
         14                33           0            27   87     1       0.2074059348E-01      28   90    1      -0.1087374535E+05      0.1092311567E+05      0.1760882352E+05      0.3058079157E+01
         15                33           0            27   87     1       0.1451841519E-01      28   90    1      -0.6180499390E+04      0.6267235870E+04      0.1092311567E+05      0.3058079157E+01
         16                33           0            27   87     1       0.1016289046E-01      28   90    1      -0.2895227926E+04      0.3076445142E+04      0.6267235870E+04      0.3058079157E+01
         17                33           0            27   87     1       0.7114023201E-02      28   90    1      -0.5955382625E+03      0.1199411595E+04      0.3076445142E+04      0.3058079157E+01
          0                34           2            27   87     1       0.3058078724E+01      32  105    1      -0.5518652248E+03      0.1051940898E+04      0.1199411595E+04      0.3058078724E+01
          1                34           0            27   87     1       0.2140655070E+01      27   87    1      -0.2311857289E+07      0.3445308706E+07      0.1051940898E+04      0.3058078724E+01
          2                34           0            27   87     1       0.1498458524E+01      27   87    1      -0.1394124963E+07      0.2085541154E+07      0.3445308706E+07      0.3058078724E+01
          3                34           0            27   87     1       0.1048920949E+01      28   90    1      -0.7901779732E+06      0.1169238164E+07      0.2085541154E+07      0.3058078724E+01
          4                34           0            27   87     1       0.7342446517E+00      28   90    1      -0.5528170157E+06      0.6299566852E+06      0.1169238164E+07      0.3058078724E+01
          5                34           0            27   87     1       0.5139712474E+00      28   90    1      -0.3866660225E+06      0.3866671093E+06      0.6299566852E+06      0.3058078724E+01
                                                   Max.-Head-Change                        Max.-Flux-Residual
  Residual-Control   Outer-Iter.   Inner-Iter.     Column Row Layer    Max.-Head-Change    Column Row Layer    Max.-Flux-Residual            L2-New               L2-Old           Solver-Max-Delh
          6                34           0            27   87     1       0.3597798671E+00      28   90    1      -0.2703611496E+06      0.2703628199E+06      0.3866671093E+06      0.3058078724E+01
          7                34           0            27   87     1       0.2518459027E+00      28   90    1      -0.1889481420E+06      0.1889506625E+06      0.2703628199E+06      0.3058078724E+01
          8                34           0            27   87     1       0.1762921289E+00      28   90    1      -0.1319592346E+06      0.1319629846E+06      0.1889506625E+06      0.3058078724E+01
          9                34           0            27   87     1       0.1234044881E+00      28   90    1      -0.9206709660E+05      0.9207262010E+05      0.1319629846E+06      0.3058078724E+01
         10                34           0            27   87     1       0.8638314020E-01      28   90    1      -0.6414264778E+05      0.6415073002E+05      0.9207262010E+05      0.3058078724E+01
         11                34           0            27   87     1       0.6046819711E-01      28   90    1      -0.4459555711E+05      0.4460734006E+05      0.6415073002E+05      0.3058078724E+01
         12                34           0            27   87     1       0.4232773725E-01      28   90    1      -0.3091260523E+05      0.3092976417E+05      0.4460734006E+05      0.3058078724E+01
         13                34           0            27   87     1       0.2962941557E-01      28   90    1      -0.2133454464E+05      0.2135956631E+05      0.3092976417E+05      0.3058078724E+01
         14                34           0            27   87     1       0.2074059055E-01      28   90    1      -0.1462990506E+05      0.1466654106E+05      0.2135956631E+05      0.3058078724E+01
         15                34           0            27   87     1       0.1451841314E-01      28   90    1      -0.9936658780E+04      0.9990697119E+04      0.1466654106E+05      0.3058078724E+01
                                                   Max.-Head-Change                        Max.-Flux-Residual
  Residual-Control   Outer-Iter.   Inner-Iter.     Column Row Layer    Max.-Head-Change    Column Row Layer    Max.-Flux-Residual            L2-New               L2-Old           Solver-Max-Delh
         16                34           0            27   87     1       0.1016288902E-01      28   90    1      -0.6651387091E+04      0.6732033567E+04      0.9990697119E+04      0.3058078724E+01
         17                34           0            27   87     1       0.7114022195E-02      28   90    1      -0.4351697269E+04      0.4474185771E+04      0.6732033567E+04      0.3058078724E+01
         18                34           0            27   87     1       0.4979815451E-02      28   90    1      -0.2741914577E+04      0.2932641692E+04      0.4474185771E+04      0.3058078724E+01
         19                34           0            27   87     1       0.3485870757E-02      28   90    1      -0.1615066790E+04      0.1921350906E+04      0.2932641692E+04      0.3058078724E+01
         20                34           0            27   87     1       0.2440109488E-02      28   90    1      -0.8262733900E+03      0.1329088624E+04      0.1921350906E+04      0.3058078724E+01
          0                35           2            27   87     1       0.3058078576E+01      32  105    1      -0.5514468611E+03      0.1076712590E+04      0.1329088624E+04      0.3058078576E+01
          1                35           0            27   87     1       0.2140654967E+01      27   87    1      -0.2314298105E+07      0.3047472735E+07      0.1076712590E+04      0.3058078576E+01
          2                35           0            27   87     1       0.1498458451E+01      27   87    1      -0.1396565756E+07      0.1756768320E+07      0.3047472735E+07      0.3058078576E+01
          3                35           0            27   87     1       0.1048920898E+01      27   87    1      -0.7541681461E+06      0.8651438435E+06      0.1756768320E+07      0.3058078576E+01
          4                35           0            27   87     1       0.7342446160E+00      27   87    1      -0.3044971888E+06      0.3044984324E+06      0.8651438435E+06      0.3058078576E+01
                                                   Max.-Head-Change                        Max.-Flux-Residual
  Residual-Control   Outer-Iter.   Inner-Iter.     Column Row Layer    Max.-Head-Change    Column Row Layer    Max.-Flux-Residual            L2-New               L2-Old           Solver-Max-Delh
          0                36           2            27   87     1       0.3058076565E+01      32  105    1      -0.4256526787E+03      0.9584817443E+03      0.3044984324E+06      0.3058076565E+01
          1                36           0            27   87     1       0.2140653559E+01      27   87    1      -0.3048805995E+07      0.4083483766E+07      0.9584817443E+03      0.3058076565E+01
          2                36           0            27   87     1       0.1498457466E+01      27   87    1      -0.2131054041E+07      0.2789247474E+07      0.4083483766E+07      0.3058076565E+01
          3                36           0            27   87     1       0.1048920208E+01      27   87    1      -0.1488642708E+07      0.1885843512E+07      0.2789247474E+07      0.3058076565E+01
          4                36           0            27   87     1       0.7342441332E+00      27   87    1      -0.1038962144E+07      0.1257513717E+07      0.1885843512E+07      0.3058076565E+01
          5                36           0            27   87     1       0.5139708845E+00      27   87    1      -0.7241893618E+06      0.8244081428E+06      0.1257513717E+07      0.3058076565E+01
          6                36           0            27   87     1       0.3597796130E+00      27   87    1      -0.5038501857E+06      0.5329864321E+06      0.8244081428E+06      0.3058076565E+01
          7                36           0            27   87     1       0.2518457248E+00      27   87    1      -0.3496136311E+06      0.3501695876E+06      0.5329864321E+06      0.3058076565E+01
          8                36           0            27   87     1       0.1762920044E+00      27   87    1      -0.2416484691E+06      0.2416500999E+06      0.3501695876E+06      0.3058076565E+01
          9                36           0            27   87     1       0.1234044010E+00      27   87    1      -0.1660730650E+06      0.1660754846E+06      0.2416500999E+06      0.3058076565E+01
                                                   Max.-Head-Change                        Max.-Flux-Residual
  Residual-Control   Outer-Iter.   Inner-Iter.     Column Row Layer    Max.-Head-Change    Column Row Layer    Max.-Flux-Residual            L2-New               L2-Old           Solver-Max-Delh
         10                36           0            27   87     1       0.8638307921E-01      27   87    1      -0.1131703849E+06      0.1131739847E+06      0.1660754846E+06      0.3058076565E+01
         11                36           0            27   87     1       0.6046815441E-01      27   87    1      -0.7613855934E+05      0.7614396181E+05      0.1131739847E+06      0.3058076565E+01
         12                36           0            27   87     1       0.4232770737E-01      27   87    1      -0.5021630638E+05      0.5022455286E+05      0.7614396181E+05      0.3058076565E+01
         13                36           0            27   87     1       0.2962939465E-01      27   87    1      -0.3207074161E+05      0.3208371370E+05      0.5022455286E+05      0.3058076565E+01
         14                36           0            27   87     1       0.2074057590E-01      27   87    1      -0.1936885236E+05      0.1939039521E+05      0.3208371370E+05      0.3058076565E+01
         15                36           0            27   87     1       0.1451840289E-01      27   87    1      -0.1047753291E+05      0.1051739628E+05      0.1939039521E+05      0.3058076565E+01
         16                36           0            27   87     1       0.1016288185E-01      27   87    1      -0.4253610817E+04      0.4351034058E+04      0.1051739628E+05      0.3058076565E+01
          0                37           2            26   87     1       0.3055609246E+01      32  105    1      -0.4243086973E+03      0.9218922154E+03      0.4351034058E+04      0.3055609246E+01
          1                37           0            26   87     1       0.2138926436E+01      26   88    1      -0.2726702379E+07      0.2726703227E+07      0.9218922154E+03      0.3055609246E+01
          2                37           0            26   87     1       0.1497248479E+01      26   88    1      -0.1809742595E+07      0.1809743238E+07      0.2726703227E+07      0.3055609246E+01
                                                   Max.-Head-Change                        Max.-Flux-Residual
  Residual-Control   Outer-Iter.   Inner-Iter.     Column Row Layer    Max.-Head-Change    Column Row Layer    Max.-Flux-Residual            L2-New               L2-Old           Solver-Max-Delh
          3                37           0            26   87     1       0.1048073918E+01      26   88    1      -0.1167890710E+07      0.1167891274E+07      0.1809743238E+07      0.3055609246E+01
          4                37           0            26   87     1       0.7336517299E+00      26   88    1      -0.7186041757E+06      0.7186047987E+06      0.1167891274E+07      0.3055609246E+01
          5                37           0            26   87     1       0.5135562022E+00      26   88    1      -0.4041083974E+06      0.4041093119E+06      0.7186047987E+06      0.3055609246E+01
          6                37           0            26   87     1       0.3594893354E+00      26   88    1      -0.1839637038E+06      0.1839655959E+06      0.4041093119E+06      0.3055609246E+01
          7                37           0            26   87     1       0.2516425305E+00      26   88    1      -0.2986357121E+05      0.2987526052E+05      0.1839655959E+06      0.3055609246E+01
          0                38           2            26   87     1       0.3055597709E+01      32  105    1      -0.3911083932E+03      0.8916526157E+03      0.2987526052E+05      0.3055597709E+01
          1                38           0            26   87     1       0.2138918360E+01      26   88    1      -0.2978411465E+07      0.2978412376E+07      0.8916526157E+03      0.3055597709E+01
          2                38           0            26   87     1       0.1497242826E+01      26   88    1      -0.2061447079E+07      0.2061447773E+07      0.2978412376E+07      0.3055597709E+01
          3                38           0            26   87     1       0.1048069961E+01      26   88    1      -0.1419591973E+07      0.1419592559E+07      0.2061447773E+07      0.3055597709E+01
          4                38           0            26   87     1       0.7336489599E+00      26   88    1      -0.9703031826E+06      0.9703037558E+06      0.1419592559E+07      0.3055597709E+01
                                                   Max.-Head-Change                        Max.-Flux-Residual
  Residual-Control   Outer-Iter.   Inner-Iter.     Column Row Layer    Max.-Head-Change    Column Row Layer    Max.-Flux-Residual            L2-New               L2-Old           Solver-Max-Delh
          5                38           0            26   87     1       0.5135542632E+00      26   88    1      -0.6558058257E+06      0.6558064844E+06      0.9703037558E+06      0.3055597709E+01
          6                38           0            26   87     1       0.3594879781E+00      26   88    1      -0.4356600270E+06      0.4356608953E+06      0.6558064844E+06      0.3055597709E+01
          7                38           0            26   87     1       0.2516415804E+00      26   88    1      -0.2815591208E+06      0.2815603880E+06      0.4356608953E+06      0.3055597709E+01
          8                38           0            26   87     1       0.1761491033E+00      26   88    1      -0.1736890519E+06      0.1736910647E+06      0.2815603880E+06      0.3055597709E+01
          9                38           0            26   87     1       0.1233043702E+00      26   88    1      -0.9818028114E+05      0.9818382959E+05      0.1736910647E+06      0.3055597709E+01
         10                38           0            26   87     1       0.8631305767E-01      26   88    1      -0.4532427783E+05      0.4533198644E+05      0.9818382959E+05      0.3055597709E+01
         11                38           0            26   87     1       0.6041913934E-01      26   88    1      -0.8325142450E+04      0.8367203242E+04      0.4533198644E+05      0.3055597709E+01
          0                39           2            26   87     1       0.3055594939E+01      32  105    1      -0.3837606501E+03      0.8851662748E+03      0.8367203242E+04      0.3055594939E+01
          1                39           0            26   87     1       0.2138916421E+01      26   88    1      -0.3038846885E+07      0.3038847812E+07      0.8851662748E+03      0.3055594939E+01
          2                39           0            26   87     1       0.1497241469E+01      26   88    1      -0.2121881394E+07      0.2121882101E+07      0.3038847812E+07      0.3055594939E+01
                                                   Max.-Head-Change                        Max.-Flux-Residual
  Residual-Control   Outer-Iter.   Inner-Iter.     Column Row Layer    Max.-Head-Change    Column Row Layer    Max.-Flux-Residual            L2-New               L2-Old           Solver-Max-Delh
          3                39           0            26   87     1       0.1048069011E+01      26   88    1      -0.1480025514E+07      0.1480026108E+07      0.2121882101E+07      0.3055594939E+01
          4                39           0            26   87     1       0.7336482949E+00      26   88    1      -0.1030736183E+07      0.1030736753E+07      0.1480026108E+07      0.3055594939E+01
          5                39           0            26   87     1       0.5135537977E+00      26   88    1      -0.7162384469E+06      0.7162390786E+06      0.1030736753E+07      0.3055594939E+01
          6                39           0            26   87     1       0.3594876522E+00      26   88    1      -0.4960923829E+06      0.4960931712E+06      0.7162390786E+06      0.3055594939E+01
          7                39           0            26   87     1       0.2516413523E+00      26   88    1      -0.3419912910E+06      0.3419923559E+06      0.4960931712E+06      0.3055594939E+01
          8                39           0            26   87     1       0.1761489436E+00      26   88    1      -0.2341210921E+06      0.2341226009E+06      0.3419923559E+06      0.3055594939E+01
          9                39           0            26   87     1       0.1233042584E+00      26   88    1      -0.1586122303E+06      0.1586144332E+06      0.2341226009E+06      0.3055594939E+01
         10                39           0            26   87     1       0.8631297942E-01      26   88    1      -0.1057561633E+06      0.1057594593E+06      0.1586144332E+06      0.3055594939E+01
         11                39           0            26   87     1       0.6041908457E-01      26   88    1      -0.6875698329E+05      0.6876205784E+05      0.1057594593E+06      0.3055594939E+01
         12                39           0            26   87     1       0.4229335848E-01      26   88    1      -0.4285759025E+05      0.4286574690E+05      0.6876205784E+05      0.3055594939E+01
                                                   Max.-Head-Change                        Max.-Flux-Residual
  Residual-Control   Outer-Iter.   Inner-Iter.     Column Row Layer    Max.-Head-Change    Column Row Layer    Max.-Flux-Residual            L2-New               L2-Old           Solver-Max-Delh
         13                39           0            26   87     1       0.2960535043E-01      26   88    1      -0.2472803134E+05      0.2474219363E+05      0.4286574690E+05      0.3055594939E+01
         14                39           0            26   87     1       0.2072374495E-01      26   88    1      -0.1203734812E+05      0.1206646397E+05      0.2474219363E+05      0.3055594939E+01
         15                39           0            26   87     1       0.1450662122E-01      26   88    1      -0.3153873846E+04      0.3263381999E+04      0.1206646397E+05      0.3055594939E+01
          0                40           2            26   87     1       0.3055594274E+01      32  105    1      -0.3820295827E+03      0.8836494658E+03      0.3263381999E+04      0.3055594274E+01
          1                40           0            26   87     1       0.2138915955E+01      26   88    1      -0.3053357433E+07      0.3053358363E+07      0.8836494658E+03      0.3055594274E+01
          2                40           0            26   87     1       0.1497241143E+01      26   88    1      -0.2136391676E+07      0.2136392387E+07      0.3053358363E+07      0.3055594274E+01
          3                40           0            26   87     1       0.1048068782E+01      26   88    1      -0.1494535611E+07      0.1494536207E+07      0.2136392387E+07      0.3055594274E+01
          4                40           0            26   87     1       0.7336481352E+00      26   88    1      -0.1045246149E+07      0.1045246719E+07      0.1494536207E+07      0.3055594274E+01
          5                40           0            26   87     1       0.5135536859E+00      26   88    1      -0.7307483225E+06      0.7307489488E+06      0.1045246719E+07      0.3055594274E+01
          6                40           0            26   87     1       0.3594875740E+00      26   88    1      -0.5106021948E+06      0.5106029673E+06      0.7307489488E+06      0.3055594274E+01
                                                   Max.-Head-Change                        Max.-Flux-Residual
  Residual-Control   Outer-Iter.   Inner-Iter.     Column Row Layer    Max.-Head-Change    Column Row Layer    Max.-Flux-Residual            L2-New               L2-Old           Solver-Max-Delh
          7                40           0            26   87     1       0.2516412975E+00      26   88    1      -0.3565010582E+06      0.3565020857E+06      0.5106029673E+06      0.3055594274E+01
          8                40           0            26   87     1       0.1761489053E+00      26   88    1      -0.2486308281E+06      0.2486322537E+06      0.3565020857E+06      0.3055594274E+01
          9                40           0            26   87     1       0.1233042316E+00      26   88    1      -0.1731219445E+06      0.1731239660E+06      0.2486322537E+06      0.3055594274E+01
         10                40           0            26   87     1       0.8631296064E-01      26   88    1      -0.1202658622E+06      0.1202687616E+06      0.1731239660E+06      0.3055594274E+01
         11                40           0            26   87     1       0.6041907142E-01      26   88    1      -0.8326667149E+05      0.8327085956E+05      0.1202687616E+06      0.3055594274E+01
         12                40           0            26   87     1       0.4229334927E-01      26   88    1      -0.5736727095E+05      0.5737335778E+05      0.8327085956E+05      0.3055594274E+01
         13                40           0            26   87     1       0.2960534399E-01      26   88    1      -0.3923770680E+05      0.3924661941E+05      0.5737335778E+05      0.3055594274E+01
         14                40           0            26   87     1       0.2072374044E-01      26   88    1      -0.2654701991E+05      0.2656020982E+05      0.3924661941E+05      0.3055594274E+01
         15                40           0            26   87     1       0.1450661806E-01      26   88    1      -0.1766354306E+05      0.1768338270E+05      0.2656020982E+05      0.3055594274E+01
         16                40           0            26   87     1       0.1015463247E-01      26   88    1      -0.1144511124E+05      0.1147573293E+05      0.1768338270E+05      0.3055594274E+01
                                                   Max.-Head-Change                        Max.-Flux-Residual
  Residual-Control   Outer-Iter.   Inner-Iter.     Column Row Layer    Max.-Head-Change    Column Row Layer    Max.-Flux-Residual            L2-New               L2-Old           Solver-Max-Delh
         17                40           0            26   87     1       0.7108242607E-02      26   88    1      -0.7092209965E+04      0.7141552044E+04      0.1147573293E+05      0.3055594274E+01
         18                40           0            26   87     1       0.4975769740E-02      26   88    1      -0.4045179571E+04      0.4131116970E+04      0.7141552044E+04      0.3055594274E+01
         19                40           0            26   87     1       0.3483038759E-02      26   88    1      -0.1912258552E+04      0.2087969551E+04      0.4131116970E+04      0.3055594274E+01
          0                41           2            26   87     1       0.3055487845E+01      26   88    1      -0.4192139729E+03      0.9374387882E+03      0.2087969551E+04      0.3055487845E+01
          0                42           2            26   87     1       0.3055361986E+01      26   87    1       0.2778899075E+03      0.6410137214E+03      0.9374387882E+03      0.3055361986E+01
          0                43           2            26   87     1       0.3055178470E+01      26   87    1       0.2778823015E+03      0.6400379875E+03      0.6410137214E+03      0.3055178470E+01
          1                43           0            26   87     1       0.2138624892E+01      26   87    1      -0.1486427771E+07      0.1486428140E+07      0.6400379875E+03      0.3055178470E+01
          2                43           0            26   87     1       0.1497037399E+01      26   87    1      -0.5689849901E+06      0.5689853790E+06      0.1486428140E+07      0.3055178470E+01
          0                44           2            26   87     1       0.3055087143E+01      26   87    1       0.2778801457E+03      0.6400291518E+03      0.5689853790E+06      0.3055087143E+01
          1                44           0            26   87     1       0.2138560964E+01      26   87    1      -0.2984880315E+07      0.2986652406E+07      0.6400291518E+03      0.3055087143E+01
                                                   Max.-Head-Change                        Max.-Flux-Residual
  Residual-Control   Outer-Iter.   Inner-Iter.     Column Row Layer    Max.-Head-Change    Column Row Layer    Max.-Flux-Residual            L2-New               L2-Old           Solver-Max-Delh
          2                44           0            26   87     1       0.1496992649E+01      26   87    1      -0.2067423798E+07      0.2067424240E+07      0.2986652406E+07      0.3055087143E+01
          3                44           0            26   87     1       0.1047894837E+01      26   87    1      -0.1425219242E+07      0.1425219604E+07      0.2067424240E+07      0.3055087143E+01
          4                44           0            26   87     1       0.7335263731E+00      26   87    1      -0.9756834069E+06      0.9756837445E+06      0.1425219604E+07      0.3055087143E+01
          5                44           0            26   87     1       0.5134684524E+00      26   87    1      -0.6610119282E+06      0.6610122923E+06      0.9756837445E+06      0.3055087143E+01
          6                44           0            26   87     1       0.3594279106E+00      26   87    1      -0.4407436609E+06      0.4407441128E+06      0.6610122923E+06      0.3055087143E+01
          7                44           0            26   87     1       0.2515995331E+00      26   87    1      -0.2865567409E+06      0.2865573693E+06      0.4407441128E+06      0.3055087143E+01
          8                44           0            26   87     1       0.1761196702E+00      26   87    1      -0.1786263222E+06      0.1786272828E+06      0.2865573693E+06      0.3055087143E+01
          9                44           0            26   87     1       0.1232837670E+00      26   87    1      -0.1030752380E+06      0.1030768677E+06      0.1786272828E+06      0.3055087143E+01
         10                44           0            26   87     1       0.8629863545E-01      26   87    1      -0.5018958166E+05      0.5019290147E+05      0.1030768677E+06      0.3055087143E+01
         11                44           0            26   87     1       0.6040904379E-01      26   87    1      -0.1316967267E+05      0.1318228930E+05      0.5019290147E+05      0.3055087143E+01
                                                   Max.-Head-Change                        Max.-Flux-Residual
  Residual-Control   Outer-Iter.   Inner-Iter.     Column Row Layer    Max.-Head-Change    Column Row Layer    Max.-Flux-Residual            L2-New               L2-Old           Solver-Max-Delh
          0                45           2            26   87     1       0.3055083456E+01      26   87    1       0.2778800602E+03      0.6400289802E+03      0.1318228930E+05      0.3055083456E+01
          1                45           0            26   87     1       0.2138558383E+01      26   87    1      -0.3045347873E+07      0.3047347067E+07      0.6400289802E+03      0.3055083456E+01
          2                45           0            26   87     1       0.1496990843E+01      26   87    1      -0.2127890802E+07      0.2127891253E+07      0.3047347067E+07      0.3055083456E+01
          3                45           0            26   87     1       0.1047893572E+01      26   87    1      -0.1485685858E+07      0.1485686227E+07      0.2127891253E+07      0.3055083456E+01
          4                45           0            26   87     1       0.7335254879E+00      26   87    1      -0.1036149752E+07      0.1036150090E+07      0.1485686227E+07      0.3055083456E+01
          5                45           0            26   87     1       0.5134678328E+00      26   87    1      -0.7214780833E+06      0.7214784367E+06      0.1036150090E+07      0.3055083456E+01
          6                45           0            26   87     1       0.3594274768E+00      26   87    1      -0.5012096830E+06      0.5012100997E+06      0.7214784367E+06      0.3055083456E+01
          7                45           0            26   87     1       0.2515992295E+00      26   87    1      -0.3470226698E+06      0.3470232075E+06      0.5012100997E+06      0.3055083456E+01
          8                45           0            26   87     1       0.1761194577E+00      26   87    1      -0.2390921860E+06      0.2390929215E+06      0.3470232075E+06      0.3055083456E+01
          9                45           0            26   87     1       0.1232836183E+00      26   87    1      -0.1635410562E+06      0.1635421000E+06      0.2390929215E+06      0.3055083456E+01
                                                   Max.-Head-Change                        Max.-Flux-Residual
  Residual-Control   Outer-Iter.   Inner-Iter.     Column Row Layer    Max.-Head-Change    Column Row Layer    Max.-Flux-Residual            L2-New               L2-Old           Solver-Max-Delh
         10                45           0            26   87     1       0.8629853131E-01      26   87    1      -0.1106553679E+06      0.1106568884E+06      0.1635421000E+06      0.3055083456E+01
         11                45           0            26   87     1       0.6040897089E-01      26   87    1      -0.7363543654E+05      0.7363770595E+05      0.1106568884E+06      0.3055083456E+01
         12                45           0            26   87     1       0.4228627890E-01      26   87    1      -0.4772150946E+05      0.4772500011E+05      0.7363770595E+05      0.3055083456E+01
         13                45           0            26   87     1       0.2960039473E-01      26   87    1      -0.2958177277E+05      0.2958739570E+05      0.4772500011E+05      0.3055083456E+01
         14                45           0            26   87     1       0.2072027596E-01      26   87    1      -0.1688396318E+05      0.1689380720E+05      0.2958739570E+05      0.3055083456E+01
         15                45           0            26   87     1       0.1450419292E-01      26   87    1      -0.7995499479E+04      0.8016261600E+04      0.1689380720E+05      0.3055083456E+01
         16                45           0            26   87     1       0.1015293487E-01      26   87    1      -0.1773576406E+04      0.1864937868E+04      0.8016261600E+04      0.3055083456E+01
          0                46           2            26   87     1       0.3055082837E+01      26   87    1       0.2778800459E+03      0.6400289520E+03      0.1864937868E+04      0.3055082837E+01
          1                46           0            26   87     1       0.2138557949E+01      26   87    1      -0.3055510653E+07      0.3057548937E+07      0.6400289520E+03      0.3055082837E+01
          2                46           0            26   87     1       0.1496990539E+01      26   87    1      -0.2138053489E+07      0.2138053941E+07      0.3057548937E+07      0.3055082837E+01
                                                   Max.-Head-Change                        Max.-Flux-Residual
  Residual-Control   Outer-Iter.   Inner-Iter.     Column Row Layer    Max.-Head-Change    Column Row Layer    Max.-Flux-Residual            L2-New               L2-Old           Solver-Max-Delh
          3                46           0            26   87     1       0.1047893359E+01      26   87    1      -0.1495848480E+07      0.1495848850E+07      0.2138053941E+07      0.3055082837E+01
          4                46           0            26   87     1       0.7335253391E+00      26   87    1      -0.1046312328E+07      0.1046312667E+07      0.1495848850E+07      0.3055082837E+01
          5                46           0            26   87     1       0.5134677287E+00      26   87    1      -0.7316406276E+06      0.7316409796E+06      0.1046312667E+07      0.3055082837E+01
          6                46           0            26   87     1       0.3594274039E+00      26   87    1      -0.5113722049E+06      0.5113726168E+06      0.7316409796E+06      0.3055082837E+01
          7                46           0            26   87     1       0.2515991785E+00      26   87    1      -0.3571851761E+06      0.3571857019E+06      0.5113726168E+06      0.3055082837E+01
          8                46           0            26   87     1       0.1761194219E+00      26   87    1      -0.2492546814E+06      0.2492553902E+06      0.3571857019E+06      0.3055082837E+01
          9                46           0            26   87     1       0.1232835933E+00      26   87    1      -0.1737035439E+06      0.1737045299E+06      0.2492553902E+06      0.3055082837E+01
         10                46           0            26   87     1       0.8629851381E-01      26   87    1      -0.1208178502E+06      0.1208192461E+06      0.1737045299E+06      0.3055082837E+01
         11                46           0            26   87     1       0.6040895864E-01      26   87    1      -0.8379791509E+05      0.8379991250E+05      0.1208192461E+06      0.3055082837E+01
         12                46           0            26   87     1       0.4228627033E-01      26   87    1      -0.5788398538E+05      0.5788686632E+05      0.8379991250E+05      0.3055082837E+01
                                                   Max.-Head-Change                        Max.-Flux-Residual
  Residual-Control   Outer-Iter.   Inner-Iter.     Column Row Layer    Max.-Head-Change    Column Row Layer    Max.-Flux-Residual            L2-New               L2-Old           Solver-Max-Delh
         13                46           0            26   87     1       0.2960038872E-01      26   87    1      -0.3974424686E+05      0.3974843514E+05      0.5788686632E+05      0.3055082837E+01
         14                46           0            26   87     1       0.2072027175E-01      26   87    1      -0.2704643597E+05      0.2705258499E+05      0.3974843514E+05      0.3055082837E+01
         15                46           0            26   87     1       0.1450418998E-01      26   87    1      -0.1815797137E+05      0.1816712548E+05      0.2705258499E+05      0.3055082837E+01
         16                46           0            26   87     1       0.1015293281E-01      26   87    1      -0.1193604766E+05      0.1194996640E+05      0.1816712548E+05      0.3055082837E+01
         17                46           0            26   87     1       0.7107052848E-02      26   87    1      -0.7580701835E+04      0.7602596688E+04      0.1194996640E+05      0.3055082837E+01
         18                46           0            26   87     1       0.4974936909E-02      26   87    1      -0.4531960144E+04      0.4568488540E+04      0.7602596688E+04      0.3055082837E+01
         19                46           0            26   87     1       0.3482455777E-02      26   87    1      -0.2397841162E+04      0.2466183866E+04      0.4568488540E+04      0.3055082837E+01
         20                46           0            26   87     1       0.2437719002E-02      26   87    1      -0.9039579813E+03      0.1072175155E+04      0.2466183866E+04      0.3055082837E+01
          0                47           2            26   86     1       0.3053764006E+01      26   86    1       0.2778396301E+03      0.5937302523E+03      0.1072175155E+04      0.3053764006E+01
          1                47           0            26   86     1       0.2137634768E+01      29   93    1      -0.1119111851E+06      0.1119126692E+06      0.5937302523E+03      0.3053764006E+01
                                                   Max.-Head-Change                        Max.-Flux-Residual
  Residual-Control   Outer-Iter.   Inner-Iter.     Column Row Layer    Max.-Head-Change    Column Row Layer    Max.-Flux-Residual            L2-New               L2-Old           Solver-Max-Delh
          0                48           2            26   86     1       0.3053639776E+01      26   86    1       0.2778396301E+03      0.5774707557E+03      0.1119126692E+06      0.3053639776E+01
          1                48           0            26   86     1       0.2137547806E+01      27   86    1      -0.8259075848E+06      0.9080103984E+06      0.5774707557E+03      0.3053639776E+01
          2                48           0            26   86     1       0.1496283439E+01      29   93    1      -0.2635533683E+06      0.2635575603E+06      0.9080103984E+06      0.3053639776E+01
          3                48           0            26   86     1       0.1047398389E+01      29   93    1      -0.1839343613E+06      0.1839357392E+06      0.2635575603E+06      0.3053639776E+01
          4                48           0            26   86     1       0.7331788602E+00      29   93    1      -0.1282012080E+06      0.1282025052E+06      0.1839357392E+06      0.3053639776E+01
          5                48           0            26   86     1       0.5132251934E+00      29   93    1      -0.8918807526E+05      0.8918993799E+05      0.1282025052E+06      0.3053639776E+01
          6                48           0            26   86     1       0.3592576292E+00      29   93    1      -0.6187891900E+05      0.6188160285E+05      0.8918993799E+05      0.3053639776E+01
          7                48           0            26   86     1       0.2514803362E+00      29   93    1      -0.4276252767E+05      0.4276641098E+05      0.6188160285E+05      0.3053639776E+01
          8                48           0            26   86     1       0.1760362323E+00      29   93    1      -0.2938106267E+05      0.2938671460E+05      0.4276641098E+05      0.3053639776E+01
          9                48           0            26   86     1       0.1232253605E+00      29   93    1      -0.2001404158E+05      0.2002233847E+05      0.2938671460E+05      0.3053639776E+01
                                                   Max.-Head-Change                        Max.-Flux-Residual
  Residual-Control   Outer-Iter.   Inner-Iter.     Column Row Layer    Max.-Head-Change    Column Row Layer    Max.-Flux-Residual            L2-New               L2-Old           Solver-Max-Delh
         10                48           0            26   86     1       0.8625775091E-01      29   93    1      -0.1345712901E+05      0.1346946636E+05      0.2002233847E+05      0.3053639776E+01
         11                48           0            26   86     1       0.6038042461E-01      29   93    1      -0.8867291318E+04      0.8886004683E+04      0.1346946636E+05      0.3053639776E+01
         12                48           0            26   86     1       0.4226629650E-01      29   93    1      -0.5654405488E+04      0.5683708457E+04      0.8886004683E+04      0.3053639776E+01
         13                48           0            26   86     1       0.2958640705E-01      29   93    1      -0.3405385691E+04      0.3453824618E+04      0.5683708457E+04      0.3053639776E+01
         14                48           0            26   86     1       0.2071048458E-01      29   93    1      -0.1831071979E+04      0.1919657904E+04      0.3453824618E+04      0.3053639776E+01
         15                48           0            26   86     1       0.1449733896E-01      29   93    1      -0.7290524594E+03      0.9294008392E+03      0.1919657904E+04      0.3053639776E+01
          0                49           2            26   86     1       0.3053638933E+01      26   86    1       0.2778396301E+03      0.5768707824E+03      0.9294008392E+03      0.3053638933E+01
          1                49           0            26   86     1       0.2137547217E+01      27   86    1      -0.8390514681E+06      0.8390562075E+06      0.5768707824E+03      0.3053638933E+01
          2                49           0            26   86     1       0.1496283026E+01      27   86    1      -0.8462513004E+04      0.8591604513E+04      0.8390562075E+06      0.3053638933E+01
          3                49           0            26   86     1       0.1047398101E+01      28   66    1      -0.4379632041E+03      0.7234027486E+03      0.8591604513E+04      0.3053638933E+01
                                                   Max.-Head-Change                        Max.-Flux-Residual
  Residual-Control   Outer-Iter.   Inner-Iter.     Column Row Layer    Max.-Head-Change    Column Row Layer    Max.-Flux-Residual            L2-New               L2-Old           Solver-Max-Delh
          0                50           2            26   86     1       0.3053578066E+01      26   86    1       0.2778396301E+03      0.5760093439E+03      0.7234027486E+03      0.3053578066E+01
          1                50           0            26   86     1       0.2137504610E+01      27   86    1      -0.1788683934E+07      0.1788689330E+07      0.5760093439E+03      0.3053578066E+01
          2                50           0            26   86     1       0.1496253202E+01      27   86    1      -0.9580758594E+06      0.9580805954E+06      0.1788689330E+07      0.3053578066E+01
          3                50           0            26   86     1       0.1047377223E+01      27   86    1      -0.3766668032E+06      0.3766724506E+06      0.9580805954E+06      0.3053578066E+01
          4                50           0            26   86     1       0.7331640438E+00      28   66    1      -0.1324924580E+04      0.1444597952E+04      0.3766724506E+06      0.3053578066E+01
          5                50           0            26   86     1       0.5132148219E+00      28   66    1      -0.8588023620E+03      0.1033957297E+04      0.1444597952E+04      0.3053578066E+01
          6                50           0            26   86     1       0.3592503692E+00      28   66    1      -0.5325170737E+03      0.7843282590E+03      0.1033957297E+04      0.3053578066E+01
          7                50           0            26   86     1       0.2514752542E+00      28   66    1      -0.3041175025E+03      0.6512580603E+03      0.7843282590E+03      0.3053578066E+01
          0                51           2            26   86     1       0.3053563453E+01      26   86    1       0.2778396301E+03      0.5937115439E+03      0.6512580603E+03      0.3053563453E+01
          1                51           0            26   86     1       0.2137494381E+01      27   86    1      -0.2016692634E+07      0.2016692871E+07      0.5937115439E+03      0.3053563453E+01
                                                   Max.-Head-Change                        Max.-Flux-Residual
  Residual-Control   Outer-Iter.   Inner-Iter.     Column Row Layer    Max.-Head-Change    Column Row Layer    Max.-Flux-Residual            L2-New               L2-Old           Solver-Max-Delh
          2                51           0            26   86     1       0.1496246041E+01      27   86    1      -0.1186079974E+07      0.1186080186E+07      0.2016692871E+07      0.3053563453E+01
          3                51           0            26   86     1       0.1047372211E+01      27   86    1      -0.6046674988E+06      0.6046677747E+06      0.1186080186E+07      0.3053563453E+01
          4                51           0            26   86     1       0.7331605351E+00      27   86    1      -0.1976870837E+06      0.1976878018E+06      0.6046677747E+06      0.3053563453E+01
          0                52           2            26   86     1       0.3053520849E+01      26   86    1       0.2778396301E+03      0.5864043686E+03      0.1976878018E+06      0.3053520849E+01
          1                52           0            26   86     1       0.2137464558E+01      27   86    1      -0.2681450525E+07      0.2681450805E+07      0.5864043686E+03      0.3053520849E+01
          2                52           0            26   86     1       0.1496225165E+01      27   86    1      -0.1850824497E+07      0.1850824725E+07      0.2681450805E+07      0.3053520849E+01
          3                52           0            26   86     1       0.1047357598E+01      27   86    1      -0.1269402664E+07      0.1269402876E+07      0.1850824725E+07      0.3053520849E+01
          4                52           0            26   86     1       0.7331503060E+00      27   86    1      -0.8624154118E+06      0.8624156413E+06      0.1269402876E+07      0.3053520849E+01
          5                52           0            26   86     1       0.5132052054E+00      27   86    1      -0.5775282723E+06      0.5775285579E+06      0.8624156413E+06      0.3053520849E+01
          6                52           0            26   86     1       0.3592436377E+00      27   86    1      -0.3781094119E+06      0.3781098087E+06      0.5775285579E+06      0.3053520849E+01
                                                   Max.-Head-Change                        Max.-Flux-Residual
  Residual-Control   Outer-Iter.   Inner-Iter.     Column Row Layer    Max.-Head-Change    Column Row Layer    Max.-Flux-Residual            L2-New               L2-Old           Solver-Max-Delh
          7                52           0            26   86     1       0.2514705421E+00      27   86    1      -0.2385171004E+06      0.2385177023E+06      0.3781098087E+06      0.3053520849E+01
          8                52           0            26   86     1       0.1760293765E+00      27   86    1      -0.1408028313E+06      0.1408038323E+06      0.2385177023E+06      0.3053520849E+01
          9                52           0            26   86     1       0.1232205614E+00      27   86    1      -0.7240301424E+05      0.7240494858E+05      0.1408038323E+06      0.3053520849E+01
         10                52           0            26   86     1       0.8625439153E-01      27   86    1      -0.2452322652E+05      0.2452892982E+05      0.7240494858E+05      0.3053520849E+01
          0                53           2            26   86     1       0.3053515837E+01      26   86    1       0.2778396301E+03      0.5858313599E+03      0.2452892982E+05      0.3053515837E+01
          1                53           0            26   86     1       0.2137461050E+01      27   86    1      -0.2759658962E+07      0.2759659248E+07      0.5858313599E+03      0.3053515837E+01
          2                53           0            26   86     1       0.1496222709E+01      27   86    1      -0.1929031361E+07      0.1929031593E+07      0.2759659248E+07      0.3053515837E+01
          3                53           0            26   86     1       0.1047355879E+01      27   86    1      -0.1347608427E+07      0.1347608640E+07      0.1929031593E+07      0.3053515837E+01
          4                53           0            26   86     1       0.7331491026E+00      27   86    1      -0.9406204043E+06      0.9406206270E+06      0.1347608640E+07      0.3053515837E+01
          5                53           0            26   86     1       0.5132043631E+00      27   86    1      -0.6557327254E+06      0.6557329886E+06      0.9406206270E+06      0.3053515837E+01
                                                   Max.-Head-Change                        Max.-Flux-Residual
  Residual-Control   Outer-Iter.   Inner-Iter.     Column Row Layer    Max.-Head-Change    Column Row Layer    Max.-Flux-Residual            L2-New               L2-Old           Solver-Max-Delh
          6                53           0            26   86     1       0.3592430480E+00      27   86    1      -0.4563133525E+06      0.4563136925E+06      0.6557329886E+06      0.3053515837E+01
          7                53           0            26   86     1       0.2514701293E+00      27   86    1      -0.3167208852E+06      0.3167213488E+06      0.4563136925E+06      0.3053515837E+01
          8                53           0            26   86     1       0.1760290875E+00      27   86    1      -0.2190065071E+06      0.2190071597E+06      0.3167213488E+06      0.3053515837E+01
          9                53           0            26   86     1       0.1232203592E+00      27   86    1      -0.1506066137E+06      0.1506075510E+06      0.2190071597E+06      0.3053515837E+01
         10                53           0            26   86     1       0.8625424996E-01      27   86    1      -0.1027267725E+06      0.1027281390E+06      0.1506075510E+06      0.3053515837E+01
         11                53           0            26   86     1       0.6037797394E-01      27   86    1      -0.6921092514E+05      0.6921294848E+05      0.1027281390E+06      0.3053515837E+01
         12                53           0            26   86     1       0.4226458104E-01      27   86    1      -0.4574985239E+05      0.4575291060E+05      0.6921294848E+05      0.3053515837E+01
         13                53           0            26   86     1       0.2958520622E-01      27   86    1      -0.2932711156E+05      0.2933188098E+05      0.4575291060E+05      0.3053515837E+01
         14                53           0            26   86     1       0.2070964400E-01      27   86    1      -0.1783119798E+05      0.1783904139E+05      0.2933188098E+05      0.3053515837E+01
         15                53           0            26   86     1       0.1449675056E-01      27   86    1      -0.9784060963E+04      0.9798349637E+04      0.1783904139E+05      0.3053515837E+01
                                                   Max.-Head-Change                        Max.-Flux-Residual
  Residual-Control   Outer-Iter.   Inner-Iter.     Column Row Layer    Max.-Head-Change    Column Row Layer    Max.-Flux-Residual            L2-New               L2-Old           Solver-Max-Delh
         16                53           0            26   86     1       0.1014772522E-01      27   86    1      -0.4151066303E+04      0.4184637605E+04      0.9798349637E+04      0.3053515837E+01
          0                54           2            26   86     1       0.3053515248E+01      26   86    1       0.2778396301E+03      0.5684381884E+03      0.4184637605E+04      0.3053515248E+01
          0                55           2            26   86     1       0.3053295653E+01      26   86    1       0.2778396301E+03      0.5178059076E+03      0.5684381884E+03      0.3053295653E+01
          0                56           2            26   86     1       0.3053076111E+01      26   86    1       0.2778396301E+03      0.5176623225E+03      0.5178059076E+03      0.3053076111E+01
          1                56           0            26   86     1       0.2137153241E+01      26   86    1      -0.2263420771E+07      0.2266079861E+07      0.5176623225E+03      0.3053076111E+01
          2                56           0            26   86     1       0.1496007243E+01      26   86    1      -0.1345895646E+07      0.1345901280E+07      0.2266079861E+07      0.3053076111E+01
          3                56           0            26   86     1       0.1047205053E+01      26   86    1      -0.7036514998E+06      0.7036518814E+06      0.1345901280E+07      0.3053076111E+01
          4                56           0            26   86     1       0.7330435243E+00      26   86    1      -0.2540920868E+06      0.2540925525E+06      0.7036518814E+06      0.3053076111E+01
          0                57           2            26   86     1       0.3053023408E+01      26   86    1       0.2778396301E+03      0.5176610643E+03      0.2540925525E+06      0.3053023408E+01
          1                57           0            26   86     1       0.2137116349E+01      26   86    1      -0.2997722207E+07      0.3004032034E+07      0.5176610643E+03      0.3053023408E+01
                                                   Max.-Head-Change                        Max.-Flux-Residual
  Residual-Control   Outer-Iter.   Inner-Iter.     Column Row Layer    Max.-Head-Change    Column Row Layer    Max.-Flux-Residual            L2-New               L2-Old           Solver-Max-Delh
          2                57           0            26   86     1       0.1495981419E+01      26   86    1      -0.2080181405E+07      0.2082066390E+07      0.3004032034E+07      0.3053023408E+01
          3                57           0            26   86     1       0.1047186975E+01      26   86    1      -0.1437926285E+07      0.1437998351E+07      0.2082066390E+07      0.3053023408E+01
          4                57           0            26   86     1       0.7330308703E+00      26   86    1      -0.9883591896E+06      0.9883596321E+06      0.1437998351E+07      0.3053023408E+01
          5                57           0            26   86     1       0.5131216005E+00      26   86    1      -0.6736678539E+06      0.6736682310E+06      0.9883596321E+06      0.3053023408E+01
          6                57           0            26   86     1       0.3591851142E+00      26   86    1      -0.4533866792E+06      0.4533870486E+06      0.6736682310E+06      0.3053023408E+01
          7                57           0            26   86     1       0.2514295757E+00      26   86    1      -0.2991912102E+06      0.2991916348E+06      0.4533870486E+06      0.3053023408E+01
          8                57           0            26   86     1       0.1760007000E+00      26   86    1      -0.1912550457E+06      0.1912556131E+06      0.2991916348E+06      0.3053023408E+01
          9                57           0            26   86     1       0.1232004879E+00      26   86    1      -0.1157000561E+06      0.1157009233E+06      0.1912556131E+06      0.3053023408E+01
         10                57           0            26   86     1       0.8624034005E-01      26   86    1      -0.6281172315E+05      0.6281326647E+05      0.1157009233E+06      0.3053023408E+01
         11                57           0            26   86     1       0.6036823701E-01      26   86    1      -0.2578996861E+05      0.2579367910E+05      0.6281326647E+05      0.3053023408E+01
                                                   Max.-Head-Change                        Max.-Flux-Residual
  Residual-Control   Outer-Iter.   Inner-Iter.     Column Row Layer    Max.-Head-Change    Column Row Layer    Max.-Flux-Residual            L2-New               L2-Old           Solver-Max-Delh
          0                58           2            25   86     1       0.2984263975E+01      25   86    1       0.2715882263E+03      0.4543778961E+03      0.2579367910E+05      0.2984263975E+01
          1                58           0            25   86     1       0.2088984747E+01      30   87    1      -0.2015733285E+06      0.2015738204E+06      0.4543778961E+03      0.2984263975E+01
          2                58           0            25   86     1       0.1462289298E+01      30   87    1      -0.9554618744E+05      0.9554719457E+05      0.2015738204E+06      0.2984263975E+01
          3                58           0            25   86     1       0.1023602491E+01      30   87    1      -0.2132745715E+05      0.2133198513E+05      0.9554719457E+05      0.2984263975E+01
          0                59           2            25   86     1       0.2984214588E+01      25   86    1       0.2715882263E+03      0.4436758158E+03      0.2133198513E+05      0.2984214588E+01
          1                59           0            25   86     1       0.2088950176E+01      30   87    1      -0.3227958860E+06      0.3227962136E+06      0.4436758158E+03      0.2984214588E+01
          2                59           0            25   86     1       0.1462265098E+01      30   87    1      -0.2167689355E+06      0.2167693964E+06      0.3227962136E+06      0.2984214588E+01
          3                59           0            25   86     1       0.1023585551E+01      30   87    1      -0.1425503385E+06      0.1425510233E+06      0.2167693964E+06      0.2984214588E+01
          4                59           0            25   86     1       0.7165098738E+00      30   87    1      -0.9059745244E+05      0.9059852195E+05      0.1425510233E+06      0.2984214588E+01
          5                59           0            25   86     1       0.5015569031E+00      30   87    1      -0.5423049696E+05      0.5423228222E+05      0.9059852195E+05      0.2984214588E+01
                                                   Max.-Head-Change                        Max.-Flux-Residual
  Residual-Control   Outer-Iter.   Inner-Iter.     Column Row Layer    Max.-Head-Change    Column Row Layer    Max.-Flux-Residual            L2-New               L2-Old           Solver-Max-Delh
          6                59           0            25   86     1       0.3510898262E+00      30   87    1      -0.2877365998E+05      0.2877702997E+05      0.5423228222E+05      0.2984214588E+01
          7                59           0            25   86     1       0.2457628742E+00      30   87    1      -0.1095388980E+05      0.1096275831E+05      0.2877702997E+05      0.2984214588E+01
          0                60           2            25   86     1       0.2984202731E+01      25   86    1       0.2715882263E+03      0.4424883078E+03      0.1096275831E+05      0.2984202731E+01
          1                60           0            25   86     1       0.2088941876E+01      30   87    1      -0.3519013143E+06      0.3519016206E+06      0.4424883078E+03      0.2984202731E+01
          2                60           0            25   86     1       0.1462259288E+01      30   87    1      -0.2458744095E+06      0.2458748214E+06      0.3519016206E+06      0.2984202731E+01
          3                60           0            25   86     1       0.1023581484E+01      30   87    1      -0.1716558445E+06      0.1716564181E+06      0.2458748214E+06      0.2984202731E+01
          4                60           0            25   86     1       0.7165070269E+00      30   87    1      -0.1197029809E+06      0.1197037939E+06      0.1716564181E+06      0.2984202731E+01
          5                60           0            25   86     1       0.5015549103E+00      30   87    1      -0.8333604105E+05      0.8333720437E+05      0.1197037939E+06      0.2984202731E+01
          6                60           0            25   86     1       0.3510884312E+00      30   87    1      -0.5787921506E+05      0.5788088893E+05      0.8333720437E+05      0.2984202731E+01
          7                60           0            25   86     1       0.2457618977E+00      30   87    1      -0.4005945256E+05      0.4006187236E+05      0.5788088893E+05      0.2984202731E+01
                                                   Max.-Head-Change                        Max.-Flux-Residual
  Residual-Control   Outer-Iter.   Inner-Iter.     Column Row Layer    Max.-Head-Change    Column Row Layer    Max.-Flux-Residual            L2-New               L2-Old           Solver-Max-Delh
          8                60           0            25   86     1       0.1720333254E+00      30   87    1      -0.2758562658E+05      0.2758914360E+05      0.4006187236E+05      0.2984202731E+01
          9                60           0            25   86     1       0.1204233258E+00      30   87    1      -0.1885395224E+05      0.1885910216E+05      0.2758914360E+05      0.2984202731E+01
         10                60           0            25   86     1       0.8429632659E-01      30   87    1      -0.1274178211E+05      0.1274940672E+05      0.1885910216E+05      0.2984202731E+01
         11                60           0            25   86     1       0.5900742761E-01      30   87    1      -0.8463263985E+04      0.8474745301E+04      0.1274940672E+05      0.2984202731E+01
         12                60           0            25   86     1       0.4130519862E-01      30   87    1      -0.5468301782E+04      0.5486062132E+04      0.8474745301E+04      0.2984202731E+01
         13                60           0            25   86     1       0.2891363854E-01      30   87    1      -0.3371828489E+04      0.3400564850E+04      0.5486062132E+04      0.2984202731E+01
         14                60           0            25   86     1       0.2023954664E-01      30   87    1      -0.1904297314E+04      0.1954739358E+04      0.3400564850E+04      0.2984202731E+01
         15                60           0            25   86     1       0.1416768240E-01      30   87    1      -0.8770255595E+03      0.9817651536E+03      0.1954739358E+04      0.2984202731E+01
          0                61           2            25   86     1       0.2984202047E+01      25   86    1       0.2715882263E+03      0.4686734319E+03      0.9817651536E+03      0.2984202047E+01
          0                62           2            25   86     1       0.2984058075E+01      25   86    1       0.2715882263E+03      0.4359108801E+03      0.4686734319E+03      0.2984058075E+01
                                                   Max.-Head-Change                        Max.-Flux-Residual
  Residual-Control   Outer-Iter.   Inner-Iter.     Column Row Layer    Max.-Head-Change    Column Row Layer    Max.-Flux-Residual            L2-New               L2-Old           Solver-Max-Delh
          0                63           2            25   86     1       0.2983914122E+01      25   86    1       0.2715882263E+03      0.4355991987E+03      0.4359108801E+03      0.2983914122E+01
          1                63           0            25   86     1       0.2088739850E+01      25   86    1      -0.1121965095E+07      0.1473068955E+07      0.4355991987E+03      0.2983914122E+01
          2                63           0            25   86     1       0.1462117870E+01      28   86    1      -0.5648370988E+06      0.6082515218E+06      0.1473068955E+07      0.2983914122E+01
          3                63           0            25   86     1       0.1023482492E+01      28   86    1      -0.2920582386E+06      0.2920585973E+06      0.6082515218E+06      0.2983914122E+01
          4                63           0            25   86     1       0.7164377320E+00      28   86    1      -0.1011156851E+06      0.1011165745E+06      0.2920585973E+06      0.2983914122E+01
          0                64           2            25   86     1       0.2983879563E+01      25   86    1       0.2715882263E+03      0.4355972771E+03      0.1011165745E+06      0.2983879563E+01
          1                64           0            25   86     1       0.2088715659E+01      25   86    1      -0.1839282988E+07      0.2233103225E+07      0.4355972771E+03      0.2983879563E+01
          2                64           0            25   86     1       0.1462100936E+01      25   86    1      -0.9429790083E+06      0.1287568549E+07      0.2233103225E+07      0.2983879563E+01
          3                64           0            25   86     1       0.1023470638E+01      28   86    1      -0.6039298072E+06      0.6814135505E+06      0.1287568549E+07      0.2983879563E+01
          4                64           0            25   86     1       0.7164294343E+00      28   86    1      -0.4129854747E+06      0.4129857694E+06      0.6814135505E+06      0.2983879563E+01
                                                   Max.-Head-Change                        Max.-Flux-Residual
  Residual-Control   Outer-Iter.   Inner-Iter.     Column Row Layer    Max.-Head-Change    Column Row Layer    Max.-Flux-Residual            L2-New               L2-Old           Solver-Max-Delh
          5                64           0            25   86     1       0.5015005955E+00      28   86    1      -0.2793257404E+06      0.2793261104E+06      0.4129857694E+06      0.2983879563E+01
          6                64           0            25   86     1       0.3510504108E+00      28   86    1      -0.1857645632E+06      0.1857650732E+06      0.2793261104E+06      0.2983879563E+01
          7                64           0            25   86     1       0.2457352834E+00      28   86    1      -0.1202720515E+06      0.1202728062E+06      0.1857650732E+06      0.2983879563E+01
          8                64           0            25   86     1       0.1720146955E+00      28   86    1      -0.7442744655E+05      0.7442864245E+05      0.1202728062E+06      0.2983879563E+01
          9                64           0            25   86     1       0.1204102848E+00      28   86    1      -0.4233629838E+05      0.4233838317E+05      0.7442864245E+05      0.2983879563E+01
         10                64           0            25   86     1       0.8428719790E-01      28   86    1      -0.1987253165E+05      0.1987695859E+05      0.4233838317E+05      0.2983879563E+01
         11                64           0            25   86     1       0.5900103753E-01      28   86    1      -0.4147913153E+04      0.4169051996E+04      0.1987695859E+05      0.2983879563E+01
          0                65           2            25   86     1       0.2983876717E+01      25   86    1       0.2715882263E+03      0.4355971622E+03      0.4169051996E+04      0.2983876717E+01
          1                65           0            25   86     1       0.2088713666E+01      25   86    1      -0.1898357336E+07      0.2296358535E+07      0.4355971622E+03      0.2983876717E+01
          2                65           0            25   86     1       0.1462099542E+01      25   86    1      -0.1002052303E+07      0.1348490698E+07      0.2296358535E+07      0.2983876717E+01
                                                   Max.-Head-Change                        Max.-Flux-Residual
  Residual-Control   Outer-Iter.   Inner-Iter.     Column Row Layer    Max.-Head-Change    Column Row Layer    Max.-Flux-Residual            L2-New               L2-Old           Solver-Max-Delh
          3                65           0            25   86     1       0.1023469662E+01      28   86    1      -0.6296137886E+06      0.7326533833E+06      0.1348490698E+07      0.2983876717E+01
          4                65           0            25   86     1       0.7164287510E+00      28   86    1      -0.4386693096E+06      0.4386695969E+06      0.7326533833E+06      0.2983876717E+01
          5                65           0            25   86     1       0.5015001171E+00      28   86    1      -0.3050094727E+06      0.3050098213E+06      0.4386695969E+06      0.2983876717E+01
          6                65           0            25   86     1       0.3510500760E+00      28   86    1      -0.2114482237E+06      0.2114486813E+06      0.3050098213E+06      0.2983876717E+01
          7                65           0            25   86     1       0.2457350490E+00      28   86    1      -0.1459556617E+06      0.1459562929E+06      0.2114486813E+06      0.2983876717E+01
          8                65           0            25   86     1       0.1720145314E+00      28   86    1      -0.1001110216E+06      0.1001119196E+06      0.1459562929E+06      0.2983876717E+01
          9                65           0            25   86     1       0.1204101699E+00      28   86    1      -0.6801984882E+05      0.6802115471E+05      0.1001119196E+06      0.2983876717E+01
         10                65           0            25   86     1       0.8428711751E-01      28   86    1      -0.4555606486E+05      0.4555800355E+05      0.6802115471E+05      0.2983876717E+01
         11                65           0            25   86     1       0.5900098125E-01      28   86    1      -0.2983143429E+05      0.2983438688E+05      0.4555800355E+05      0.2983876717E+01
         12                65           0            25   86     1       0.4130068617E-01      28   86    1      -0.1882420187E+05      0.1882887486E+05      0.2983438688E+05      0.2983876717E+01
                                                   Max.-Head-Change                        Max.-Flux-Residual
  Residual-Control   Outer-Iter.   Inner-Iter.     Column Row Layer    Max.-Head-Change    Column Row Layer    Max.-Flux-Residual            L2-New               L2-Old           Solver-Max-Delh
         13                65           0            25   86     1       0.2891047983E-01      28   86    1      -0.1111914362E+05      0.1112704866E+05      0.1882887486E+05      0.2983876717E+01
         14                65           0            25   86     1       0.2023733554E-01      28   86    1      -0.5725605047E+04      0.5740938189E+04      0.1112704866E+05      0.2983876717E+01
         15                65           0            25   86     1       0.1416613463E-01      28   86    1      -0.1950129144E+04      0.1994694974E+04      0.5740938189E+04      0.2983876717E+01
          0                66           2            25   86     1       0.2983876034E+01      25   86    1       0.2715882263E+03      0.4355971353E+03      0.1994694974E+04      0.2983876034E+01
          1                66           0            25   86     1       0.2088713188E+01      25   86    1      -0.1912541091E+07      0.2311555686E+07      0.4355971353E+03      0.2983876034E+01
          2                66           0            25   86     1       0.1462099207E+01      25   86    1      -0.1016235805E+07      0.1363165926E+07      0.2311555686E+07      0.2983876034E+01
          3                66           0            25   86     1       0.1023469427E+01      28   86    1      -0.6357805132E+06      0.7452605111E+06      0.1363165926E+07      0.2983876034E+01
          4                66           0            25   86     1       0.7164285869E+00      28   86    1      -0.4448359990E+06      0.4448362848E+06      0.7452605111E+06      0.2983876034E+01
          5                66           0            25   86     1       0.5015000023E+00      28   86    1      -0.3111761376E+06      0.3111764816E+06      0.4448362848E+06      0.2983876034E+01
          6                66           0            25   86     1       0.3510499956E+00      28   86    1      -0.2176148713E+06      0.2176153183E+06      0.3111764816E+06      0.2983876034E+01
                                                   Max.-Head-Change                        Max.-Flux-Residual
  Residual-Control   Outer-Iter.   Inner-Iter.     Column Row Layer    Max.-Head-Change    Column Row Layer    Max.-Flux-Residual            L2-New               L2-Old           Solver-Max-Delh
          7                66           0            25   86     1       0.2457349927E+00      28   86    1      -0.1521222973E+06      0.1521229052E+06      0.2176153183E+06      0.2983876034E+01
          8                66           0            25   86     1       0.1720144920E+00      28   86    1      -0.1062776487E+06      0.1062784969E+06      0.1521229052E+06      0.2983876034E+01
          9                66           0            25   86     1       0.1204101423E+00      28   86    1      -0.7418647000E+05      0.7418766968E+05      0.1062784969E+06      0.2983876034E+01
         10                66           0            25   86     1       0.8428709821E-01      28   86    1      -0.5172268189E+05      0.5172439176E+05      0.7418766968E+05      0.2983876034E+01
         11                66           0            25   86     1       0.5900096774E-01      28   86    1      -0.3599804843E+05      0.3600049753E+05      0.5172439176E+05      0.2983876034E+01
         12                66           0            25   86     1       0.4130067671E-01      28   86    1      -0.2499081399E+05      0.2499433627E+05      0.3600049753E+05      0.2983876034E+01
         13                66           0            25   86     1       0.2891047321E-01      28   86    1      -0.1728575432E+05      0.1729084243E+05      0.2499433627E+05      0.2983876034E+01
         14                66           0            25   86     1       0.2023733090E-01      28   86    1      -0.1189221475E+05      0.1189960655E+05      0.1729084243E+05      0.2983876034E+01
         15                66           0            25   86     1       0.1416613139E-01      28   86    1      -0.8116738149E+04      0.8127562413E+04      0.1189960655E+05      0.2983876034E+01
         16                66           0            25   86     1       0.9916291804E-02      28   86    1      -0.5473905081E+04      0.5489941138E+04      0.8127562413E+04      0.2983876034E+01
                                                   Max.-Head-Change                        Max.-Flux-Residual
  Residual-Control   Outer-Iter.   Inner-Iter.     Column Row Layer    Max.-Head-Change    Column Row Layer    Max.-Flux-Residual            L2-New               L2-Old           Solver-Max-Delh
         17                66           0            25   86     1       0.6941404144E-02      28   86    1      -0.3623922214E+04      0.3648098313E+04      0.5489941138E+04      0.2983876034E+01
         18                66           0            25   86     1       0.4858982818E-02      28   86    1      -0.2328934350E+04      0.2366377072E+04      0.3648098313E+04      0.2983876034E+01
         19                66           0            25   86     1       0.3401287915E-02      28   86    1      -0.1422442921E+04      0.1482952187E+04      0.2366377072E+04      0.2983876034E+01
         20                66           0            25   86     1       0.2380901500E-02      28   86    1      -0.7878989606E+03      0.8925173033E+03      0.1482952187E+04      0.2983876034E+01
         21                66           0            25   86     1       0.1666631022E-02      28   86    1      -0.3437182101E+03      0.5421661072E+03      0.8925173033E+03      0.2983876034E+01
          0                67           2            25   86     1       0.2983875953E+01      25   86    1       0.2715882263E+03      0.4205673877E+03      0.5421661072E+03      0.2983875953E+01
          1                67           0            25   86     1       0.2088713132E+01      25   86    1      -0.1914209796E+07      0.1914210265E+07      0.4205673877E+03      0.2983875953E+01
          2                67           0            25   86     1       0.1462099167E+01      25   86    1      -0.1017904480E+07      0.1017904763E+07      0.1914210265E+07      0.2983875953E+01
          3                67           0            25   86     1       0.1023469400E+01      25   86    1      -0.3905079998E+06      0.3905082193E+06      0.1017904763E+07      0.2983875953E+01
          0                68           2            25   86     1       0.2983822694E+01      25   86    1       0.2715882263E+03      0.4198676519E+03      0.3905082193E+06      0.2983822694E+01
                                                   Max.-Head-Change                        Max.-Flux-Residual
  Residual-Control   Outer-Iter.   Inner-Iter.     Column Row Layer    Max.-Head-Change    Column Row Layer    Max.-Flux-Residual            L2-New               L2-Old           Solver-Max-Delh
          1                68           0            25   86     1       0.2088675851E+01      25   86    1      -0.2938967599E+07      0.2938968306E+07      0.4198676519E+03      0.2983822694E+01
          2                68           0            25   86     1       0.1462073070E+01      25   86    1      -0.2042645175E+07      0.2042645673E+07      0.2938968306E+07      0.2983822694E+01
          3                68           0            25   86     1       0.1023451132E+01      25   86    1      -0.1415236718E+07      0.1415237079E+07      0.2042645673E+07      0.2983822694E+01
          4                68           0            25   86     1       0.7164157801E+00      25   86    1      -0.9760592476E+06      0.9760595227E+06      0.1415237079E+07      0.2983822694E+01
          5                68           0            25   86     1       0.5014910375E+00      25   86    1      -0.6686391607E+06      0.6686393892E+06      0.9760595227E+06      0.2983822694E+01
          6                68           0            25   86     1       0.3510437203E+00      25   86    1      -0.4534471306E+06      0.4534473462E+06      0.6686393892E+06      0.2983822694E+01
          7                68           0            25   86     1       0.2457306000E+00      25   86    1      -0.3028137053E+06      0.3028139429E+06      0.4534473462E+06      0.2983822694E+01
          8                68           0            25   86     1       0.1720114171E+00      25   86    1      -0.1973707960E+06      0.1973711002E+06      0.3028139429E+06      0.2983822694E+01
          9                68           0            25   86     1       0.1204079899E+00      25   86    1      -0.1235609993E+06      0.1235614419E+06      0.1973711002E+06      0.2983822694E+01
         10                68           0            25   86     1       0.8428559150E-01      25   86    1      -0.7189425934E+05      0.7189498843E+05      0.1235614419E+06      0.2983822694E+01
                                                   Max.-Head-Change                        Max.-Flux-Residual
  Residual-Control   Outer-Iter.   Inner-Iter.     Column Row Layer    Max.-Head-Change    Column Row Layer    Max.-Flux-Residual            L2-New               L2-Old           Solver-Max-Delh
         11                68           0            25   86     1       0.5899991305E-01      25   86    1      -0.3572759924E+05      0.3572904187E+05      0.7189498843E+05      0.2983822694E+01
         12                68           0            25   86     1       0.4129993843E-01      25   86    1      -0.1041096565E+05      0.1041589015E+05      0.3572904187E+05      0.2983822694E+01
          0                69           2            25   86     1       0.2983820470E+01      25   86    1       0.2715882263E+03      0.4198523996E+03      0.1041589015E+05      0.2983820470E+01
          1                69           0            25   86     1       0.2088674294E+01      25   86    1      -0.2980320248E+07      0.2980320965E+07      0.4198523996E+03      0.2983820470E+01
          2                69           0            25   86     1       0.1462071981E+01      25   86    1      -0.2083997155E+07      0.2083997663E+07      0.2980320965E+07      0.2983820470E+01
          3                69           0            25   86     1       0.1023450369E+01      25   86    1      -0.1456588231E+07      0.1456588601E+07      0.2083997663E+07      0.2983820470E+01
          4                69           0            25   86     1       0.7164152461E+00      25   86    1      -0.1017410434E+07      0.1017410716E+07      0.1456588601E+07      0.2983820470E+01
          5                69           0            25   86     1       0.5014906638E+00      25   86    1      -0.7099901177E+06      0.7099903512E+06      0.1017410716E+07      0.2983820470E+01
          6                69           0            25   86     1       0.3510434587E+00      25   86    1      -0.4947979272E+06      0.4947981428E+06      0.7099903512E+06      0.2983820470E+01
          7                69           0            25   86     1       0.2457304169E+00      25   86    1      -0.3441643896E+06      0.3441646163E+06      0.4947981428E+06      0.2983820470E+01
                                                   Max.-Head-Change                        Max.-Flux-Residual
  Residual-Control   Outer-Iter.   Inner-Iter.     Column Row Layer    Max.-Head-Change    Column Row Layer    Max.-Flux-Residual            L2-New               L2-Old           Solver-Max-Delh
          8                69           0            25   86     1       0.1720112889E+00      25   86    1      -0.2387214018E+06      0.2387216703E+06      0.3441646163E+06      0.2983820470E+01
          9                69           0            25   86     1       0.1204079002E+00      25   86    1      -0.1649115500E+06      0.1649118980E+06      0.2387216703E+06      0.2983820470E+01
         10                69           0            25   86     1       0.8428552868E-01      25   86    1      -0.1132447716E+06      0.1132452497E+06      0.1649118980E+06      0.2983820470E+01
         11                69           0            25   86     1       0.5899986907E-01      25   86    1      -0.7707808450E+05      0.7707876681E+05      0.1132452497E+06      0.2983820470E+01
         12                69           0            25   86     1       0.4129990765E-01      25   86    1      -0.5176143204E+05      0.5176243390E+05      0.7707876681E+05      0.2983820470E+01
         13                69           0            25   86     1       0.2890993486E-01      25   86    1      -0.3403978937E+05      0.3404130276E+05      0.5176243390E+05      0.2983820470E+01
         14                69           0            25   86     1       0.2023695406E-01      25   86    1      -0.2163464645E+05      0.2163702036E+05      0.3404130276E+05      0.2983820470E+01
         15                69           0            25   86     1       0.1416586760E-01      25   86    1      -0.1295104986E+05      0.1295500987E+05      0.2163702036E+05      0.2983820470E+01
         16                69           0            25   86     1       0.9916107151E-02      25   86    1      -0.6872533962E+04      0.6879989651E+04      0.1295500987E+05      0.2983820470E+01
         17                69           0            25   86     1       0.6941274887E-02      25   86    1      -0.2617573700E+04      0.2637083370E+04      0.6879989651E+04      0.2983820470E+01
                                                   Max.-Head-Change                        Max.-Flux-Residual
  Residual-Control   Outer-Iter.   Inner-Iter.     Column Row Layer    Max.-Head-Change    Column Row Layer    Max.-Flux-Residual            L2-New               L2-Old           Solver-Max-Delh
          0                70           2            25   85     1       0.1152392948E+01      25   86    1       0.2714760728E+03      0.4197773492E+03      0.2637083370E+04      0.1152392948E+01
          1                70           0            25   85     1       0.8066750495E+00      25   86    1      -0.8369852112E+04      0.8375947398E+04      0.4197773492E+03      0.1152392948E+01
          2                70           0            25   85     1       0.5646725251E+00      25   86    1      -0.5750626782E+04      0.5759497742E+04      0.8375947398E+04      0.1152392948E+01
          3                70           0            25   85     1       0.3952707608E+00      25   86    1      -0.3917169205E+04      0.3930190199E+04      0.5759497742E+04      0.1152392948E+01
          4                70           0            25   85     1       0.2766895279E+00      25   86    1      -0.2633749892E+04      0.2653091725E+04      0.3930190199E+04      0.1152392948E+01
          5                70           0            25   85     1       0.1936826662E+00      25   86    1      -0.1735356679E+04      0.1764592236E+04      0.2653091725E+04      0.1152392948E+01
          6                70           0            25   85     1       0.1355778640E+00      25   86    1      -0.1106480827E+04      0.1151813580E+04      0.1764592236E+04      0.1152392948E+01
          7                70           0            25   85     1       0.9490450320E-01      25   86    1      -0.6662674373E+03      0.7391387056E+03      0.1151813580E+04      0.1152392948E+01
          8                70           0            25   85     1       0.6643315111E-01      25   86    1      -0.3581179220E+03      0.4803028901E+03      0.7391387056E+03      0.1152392948E+01
          0                71           2            25   85     1       0.1152366951E+01      25   86    1      -0.1424131929E+03      0.3503493904E+03      0.4803028901E+03      0.1152366951E+01
                                                   Max.-Head-Change                        Max.-Flux-Residual
  Residual-Control   Outer-Iter.   Inner-Iter.     Column Row Layer    Max.-Head-Change    Column Row Layer    Max.-Flux-Residual            L2-New               L2-Old           Solver-Max-Delh
          0                72           2            25   85     1       0.1152359407E+01      25   85    1       0.1048844604E+03      0.3195146644E+03      0.3503493904E+03      0.1152359407E+01
          0                73           2            25   85     1       0.1152331623E+01      25   85    1       0.1048844604E+03      0.3194322835E+03      0.3195146644E+03      0.1152331623E+01
          0                74           2            25   85     1       0.1152303841E+01      25   85    1       0.1048844604E+03      0.3194305449E+03      0.3194322835E+03      0.1152303841E+01
          0                75           2            25   85     1       0.1152276061E+01      25   85    1       0.1048844604E+03      0.3194290087E+03      0.3194305449E+03      0.1152276061E+01
          0                76           2            25   85     1       0.1152248283E+01      25   85    1       0.1048844604E+03      0.3194274735E+03      0.3194290087E+03      0.1152248283E+01
          0                77           2            25   85     1       0.1152220507E+01      25   85    1       0.1048844604E+03      0.3194260098E+03      0.3194274735E+03      0.1152220507E+01
          0                78           2            25   85     1       0.1152192733E+01      25   85    1       0.1048844604E+03      0.3194248199E+03      0.3194260098E+03      0.1152192733E+01
          0                79           2            25   85     1       0.1152164961E+01      25   85    1       0.1048844604E+03      0.3194236304E+03      0.3194248199E+03      0.1152164961E+01
          0                80           2            25   85     1       0.1152137191E+01      25   85    1       0.1048844604E+03      0.3194224414E+03      0.3194236304E+03      0.1152137191E+01
          0                81           2            25   85     1       0.1152109423E+01      25   85    1       0.1048844604E+03      0.3194212529E+03      0.3194224414E+03      0.1152109423E+01
                                                   Max.-Head-Change                        Max.-Flux-Residual
  Residual-Control   Outer-Iter.   Inner-Iter.     Column Row Layer    Max.-Head-Change    Column Row Layer    Max.-Flux-Residual            L2-New               L2-Old           Solver-Max-Delh
          0                82           2            25   85     1       0.1152081657E+01      25   85    1       0.1048844604E+03      0.3194200648E+03      0.3194212529E+03      0.1152081657E+01
          0                83           2            25   85     1       0.1152053894E+01      25   85    1       0.1048844604E+03      0.3194188772E+03      0.3194200648E+03      0.1152053894E+01
          0                84           2            25   85     1       0.1152026132E+01      25   85    1       0.1048844604E+03      0.3194176901E+03      0.3194188772E+03      0.1152026132E+01
          0                85           2            25   85     1       0.1151998372E+01      25   85    1       0.1048844604E+03      0.3194165034E+03      0.3194176901E+03      0.1151998372E+01
          0                86           2            25   85     1       0.1151970615E+01      25   85    1       0.1048844604E+03      0.3194153173E+03      0.3194165034E+03      0.1151970615E+01
          0                87           2            25   85     1       0.1151942859E+01      25   85    1       0.1048844604E+03      0.3194141315E+03      0.3194153173E+03      0.1151942859E+01
          1                87           0            25   85     1       0.8063599878E+00      32   76    1      -0.3708896040E+05      0.3709032579E+05      0.3194141315E+03      0.1151942859E+01
          0                88           2            25   85     1       0.1151923432E+01      25   85    1       0.1048844604E+03      0.3194133019E+03      0.3709032579E+05      0.1151923432E+01
          1                88           0            25   85     1       0.8063463885E+00      32   76    1      -0.3853100510E+06      0.3853102326E+06      0.3194133019E+03      0.1151923432E+01
          2                88           0            25   85     1       0.5644424623E+00      32   76    1      -0.2360634493E+06      0.2360636981E+06      0.3853102326E+06      0.1151923432E+01
                                                   Max.-Head-Change                        Max.-Flux-Residual
  Residual-Control   Outer-Iter.   Inner-Iter.     Column Row Layer    Max.-Head-Change    Column Row Layer    Max.-Flux-Residual            L2-New               L2-Old           Solver-Max-Delh
          3                88           0            25   85     1       0.3951097169E+00      32   76    1      -0.1315912808E+06      0.1315916875E+06      0.2360636981E+06      0.1151923432E+01
          4                88           0            25   85     1       0.2765767971E+00      32   76    1      -0.5846098505E+05      0.5846185980E+05      0.1315916875E+06      0.1151923432E+01
          5                88           0            25   85     1       0.1936037547E+00      32   76    1      -0.7269887180E+04      0.7276774891E+04      0.5846185980E+05      0.1151923432E+01
          0                89           2            25   85     1       0.1151918767E+01      25   85    1       0.1048844604E+03      0.3194131027E+03      0.7276774891E+04      0.1151918767E+01
          1                89           0            25   85     1       0.8063431234E+00      32   76    1      -0.4689074632E+06      0.4689076300E+06      0.3194131027E+03      0.1151918767E+01
          2                89           0            25   85     1       0.5644401768E+00      32   76    1      -0.3196651859E+06      0.3196653876E+06      0.4689076300E+06      0.1151918767E+01
          3                89           0            25   85     1       0.3951081170E+00      32   76    1      -0.2151960444E+06      0.2151963118E+06      0.3196653876E+06      0.1151918767E+01
          4                89           0            25   85     1       0.2765756772E+00      32   76    1      -0.1420678676E+06      0.1420682473E+06      0.2151963118E+06      0.1151918767E+01
          5                89           0            25   85     1       0.1936029707E+00      32   76    1      -0.9087825298E+05      0.9087882589E+05      0.1420682473E+06      0.1151918767E+01
          6                89           0            25   85     1       0.1355220772E+00      32   76    1      -0.5504557639E+05      0.5504650387E+05      0.9087882589E+05      0.1151918767E+01
                                                   Max.-Head-Change                        Max.-Flux-Residual
  Residual-Control   Outer-Iter.   Inner-Iter.     Column Row Layer    Max.-Head-Change    Column Row Layer    Max.-Flux-Residual            L2-New               L2-Old           Solver-Max-Delh
          7                89           0            25   85     1       0.9486545243E-01      32   76    1      -0.2996272920E+05      0.2996441444E+05      0.5504650387E+05      0.1151918767E+01
          8                89           0            25   85     1       0.6640581557E-01      32   76    1      -0.1240474921E+05      0.1240879362E+05      0.2996441444E+05      0.1151918767E+01
          0                90           2            25   85     1       0.1151917167E+01      32   76    1      -0.1141696624E+03      0.3361814684E+03      0.1240879362E+05      0.1151917167E+01
          0                91           2            25   85     1       0.1151889416E+01      25   85    1       0.1048844604E+03      0.3163199149E+03      0.3361814684E+03      0.1151889416E+01
          1                91           0            25   85     1       0.8063225774E+00      31   74    1      -0.4810489974E+06      0.4810491452E+06      0.3163199149E+03      0.1151889416E+01
          2                91           0            25   85     1       0.5644257946E+00      31   74    1      -0.2537758915E+06      0.2537761151E+06      0.4810491452E+06      0.1151889416E+01
          3                91           0            25   85     1       0.3950980495E+00      31   74    1      -0.9468581844E+05      0.9468634847E+05      0.2537761151E+06      0.1151889416E+01
          0                92           2            25   85     1       0.1151879898E+01      25   85    1       0.1048844604E+03      0.3162532189E+03      0.9468634847E+05      0.1151879898E+01
          1                92           0            25   85     1       0.8063159147E+00      31   74    1      -0.7408966356E+06      0.7408967637E+06      0.3162532189E+03      0.1151879898E+01
          2                92           0            25   85     1       0.5644211307E+00      31   74    1      -0.5136224746E+06      0.5136226180E+06      0.7408967637E+06      0.1151879898E+01
                                                   Max.-Head-Change                        Max.-Flux-Residual
  Residual-Control   Outer-Iter.   Inner-Iter.     Column Row Layer    Max.-Head-Change    Column Row Layer    Max.-Flux-Residual            L2-New               L2-Old           Solver-Max-Delh
          3                92           0            25   85     1       0.3950947847E+00      31   74    1      -0.3545316629E+06      0.3545318388E+06      0.5136226180E+06      0.1151879898E+01
          4                92           0            25   85     1       0.2765663446E+00      31   74    1      -0.2431686347E+06      0.2431688659E+06      0.3545318388E+06      0.1151879898E+01
          5                92           0            25   85     1       0.1935964379E+00      31   74    1      -0.1652147801E+06      0.1652150993E+06      0.2431688659E+06      0.1151879898E+01
          6                92           0            25   85     1       0.1355175042E+00      31   74    1      -0.1106472119E+06      0.1106476703E+06      0.1652150993E+06      0.1151879898E+01
          7                92           0            25   85     1       0.9486225135E-01      31   74    1      -0.7244997821E+05      0.7245066142E+05      0.1106476703E+06      0.1151879898E+01
          8                92           0            25   85     1       0.6640357482E-01      31   74    1      -0.4571194608E+05      0.4571301239E+05      0.7245066142E+05      0.1151879898E+01
          9                92           0            25   85     1       0.4648250158E-01      31   74    1      -0.2699533912E+05      0.2699712686E+05      0.4571301239E+05      0.1151879898E+01
         10                92           0            25   85     1       0.3253775055E-01      31   74    1      -0.1389372191E+05      0.1389717260E+05      0.2699712686E+05      0.1151879898E+01
         11                92           0            25   85     1       0.2277642500E-01      31   74    1      -0.4722593671E+04      0.4732691898E+04      0.1389717260E+05      0.1151879898E+01
          0                93           2            25   85     1       0.1151879349E+01      25   85    1       0.1048844604E+03      0.3162511009E+03      0.4732691898E+04      0.1151879349E+01
                                                   Max.-Head-Change                        Max.-Flux-Residual
  Residual-Control   Outer-Iter.   Inner-Iter.     Column Row Layer    Max.-Head-Change    Column Row Layer    Max.-Flux-Residual            L2-New               L2-Old           Solver-Max-Delh
          1                93           0            25   85     1       0.8063155306E+00      31   74    1      -0.7558763369E+06      0.7558764645E+06      0.3162511009E+03      0.1151879349E+01
          2                93           0            25   85     1       0.5644208618E+00      31   74    1      -0.5286021150E+06      0.5286022566E+06      0.7558764645E+06      0.1151879349E+01
          3                93           0            25   85     1       0.3950945965E+00      31   74    1      -0.3695112607E+06      0.3695114320E+06      0.5286022566E+06      0.1151879349E+01
          4                93           0            25   85     1       0.2765662129E+00      31   74    1      -0.2581482027E+06      0.2581484234E+06      0.3695114320E+06      0.1151879349E+01
          5                93           0            25   85     1       0.1935963457E+00      31   74    1      -0.1801943272E+06      0.1801946233E+06      0.2581484234E+06      0.1151879349E+01
          6                93           0            25   85     1       0.1355174397E+00      31   74    1      -0.1256267445E+06      0.1256271523E+06      0.1801946233E+06      0.1151879349E+01
          7                93           0            25   85     1       0.9486220617E-01      31   74    1      -0.8742950052E+05      0.8743007191E+05      0.1256271523E+06      0.1151879349E+01
          8                93           0            25   85     1       0.6640354319E-01      31   74    1      -0.6069146123E+05      0.6069227117E+05      0.8743007191E+05      0.1151879349E+01
          9                93           0            25   85     1       0.4648247944E-01      31   74    1      -0.4197484925E+05      0.4197600813E+05      0.6069227117E+05      0.1151879349E+01
         10                93           0            25   85     1       0.3253773505E-01      31   74    1      -0.2887322854E+05      0.2887490163E+05      0.4197600813E+05      0.1151879349E+01
                                                   Max.-Head-Change                        Max.-Flux-Residual
  Residual-Control   Outer-Iter.   Inner-Iter.     Column Row Layer    Max.-Head-Change    Column Row Layer    Max.-Flux-Residual            L2-New               L2-Old           Solver-Max-Delh
         11                93           0            25   85     1       0.2277641415E-01      31   74    1      -0.1970209785E+05      0.1970453833E+05      0.2887490163E+05      0.1151879349E+01
         12                93           0            25   85     1       0.1594348963E-01      31   74    1      -0.1328230826E+05      0.1328591669E+05      0.1970453833E+05      0.1151879349E+01
         13                93           0            25   85     1       0.1116044255E-01      31   74    1      -0.8788456503E+04      0.8793897403E+04      0.1328591669E+05      0.1151879349E+01
         14                93           0            25   85     1       0.7812309654E-02      31   74    1      -0.5642760755E+04      0.5651218584E+04      0.8793897403E+04      0.1151879349E+01
         15                93           0            25   85     1       0.5468616665E-02      31   74    1      -0.3440773980E+04      0.3454612934E+04      0.5651218584E+04      0.1151879349E+01
         16                93           0            25   85     1       0.3828031600E-02      31   74    1      -0.1899383366E+04      0.1924321814E+04      0.3454612934E+04      0.1151879349E+01
         17                93           0            25   85     1       0.2679622074E-02      31   74    1      -0.8204100056E+03      0.8765744637E+03      0.1924321814E+04      0.1151879349E+01
          0                94           2            25   85     1       0.1151879284E+01      25   85    1       0.1048844604E+03      0.3154665971E+03      0.8765744637E+03      0.1151879284E+01
          0                95           2            25   85     1       0.1151851536E+01      25   85    1       0.1048844604E+03      0.3086405532E+03      0.3154665971E+03      0.1151851536E+01
          0                96           2            25   85     1       0.1151823789E+01      25   85    1       0.1048844604E+03      0.3086095870E+03      0.3086405532E+03      0.1151823789E+01
                                                   Max.-Head-Change                        Max.-Flux-Residual
  Residual-Control   Outer-Iter.   Inner-Iter.     Column Row Layer    Max.-Head-Change    Column Row Layer    Max.-Flux-Residual            L2-New               L2-Old           Solver-Max-Delh
          1                96           0            25   85     1       0.8062766386E+00      31   75    1      -0.1450797722E+06      0.1450801219E+06      0.3086095870E+03      0.1151823789E+01
          0                97           2            25   85     1       0.1151804368E+01      25   85    1       0.1048844604E+03      0.3086093352E+03      0.1450801219E+06      0.1151804368E+01
          1                97           0            25   85     1       0.8062630437E+00      31   75    1      -0.6754783761E+06      0.7208512795E+06      0.3086093352E+03      0.1151804368E+01
          2                97           0            25   85     1       0.5643841210E+00      31   75    1      -0.4481626117E+06      0.4488258801E+06      0.7208512795E+06      0.1151804368E+01
          3                97           0            25   85     1       0.3950688780E+00      31   75    1      -0.2890424997E+06      0.2890427101E+06      0.4488258801E+06      0.1151804368E+01
          4                97           0            25   85     1       0.2765482099E+00      31   75    1      -0.1776588741E+06      0.1776591702E+06      0.2890427101E+06      0.1151804368E+01
          5                97           0            25   85     1       0.1935837436E+00      31   75    1      -0.9969055846E+05      0.9969104507E+05      0.1776591702E+06      0.1151804368E+01
          6                97           0            25   85     1       0.1355086182E+00      31   75    1      -0.4511284672E+05      0.4511387637E+05      0.9969104507E+05      0.1151804368E+01
          7                97           0            25   85     1       0.9485603113E-01      31   75    1      -0.6908502203E+04      0.6915071232E+04      0.4511387637E+05      0.1151804368E+01
          0                98           2            25   85     1       0.1151802083E+01      25   85    1       0.1048844604E+03      0.3086093173E+03      0.6915071232E+04      0.1151802083E+01
                                                   Max.-Head-Change                        Max.-Flux-Residual
  Residual-Control   Outer-Iter.   Inner-Iter.     Column Row Layer    Max.-Head-Change    Column Row Layer    Max.-Flux-Residual            L2-New               L2-Old           Solver-Max-Delh
          1                98           0            25   85     1       0.8062614443E+00      31   75    1      -0.7378791265E+06      0.8019527640E+06      0.3086093173E+03      0.1151802083E+01
          2                98           0            25   85     1       0.5643830014E+00      31   75    1      -0.5105632213E+06      0.5178874527E+06      0.8019527640E+06      0.1151802083E+01
          3                98           0            25   85     1       0.3950680943E+00      31   75    1      -0.3514430106E+06      0.3514432003E+06      0.5178874527E+06      0.1151802083E+01
          4                98           0            25   85     1       0.2765476613E+00      31   75    1      -0.2400593160E+06      0.2400595529E+06      0.3514432003E+06      0.1151802083E+01
          5                98           0            25   85     1       0.1935833596E+00      31   75    1      -0.1620909521E+06      0.1620912709E+06      0.2400595529E+06      0.1151802083E+01
          6                98           0            25   85     1       0.1355083494E+00      31   75    1      -0.1075132065E+06      0.1075136610E+06      0.1620912709E+06      0.1151802083E+01
          7                98           0            25   85     1       0.9485584297E-01      31   75    1      -0.6930883831E+05      0.6930952050E+05      0.1075136610E+06      0.1151802083E+01
          8                98           0            25   85     1       0.6639908895E-01      31   75    1      -0.4256580703E+05      0.4256689641E+05      0.6930952050E+05      0.1151802083E+01
          9                98           0            25   85     1       0.4647936147E-01      31   75    1      -0.2384569818E+05      0.2384761996E+05      0.4256689641E+05      0.1151802083E+01
         10                98           0            25   85     1       0.3253555248E-01      31   75    1      -0.1074162846E+05      0.1074586293E+05      0.2384761996E+05      0.1151802083E+01
                                                   Max.-Head-Change                        Max.-Flux-Residual
  Residual-Control   Outer-Iter.   Inner-Iter.     Column Row Layer    Max.-Head-Change    Column Row Layer    Max.-Flux-Residual            L2-New               L2-Old           Solver-Max-Delh
         11                98           0            25   85     1       0.2277488635E-01      31   75    1      -0.1568782867E+04      0.1597387294E+04      0.1074586293E+05      0.1151802083E+01
          0                99           2            25   85     1       0.1151801534E+01      25   85    1       0.1048844604E+03      0.3086093130E+03      0.1597387294E+04      0.1151801534E+01
          1                99           0            25   85     1       0.8062610603E+00      31   75    1      -0.7528615443E+06      0.8216445468E+06      0.3086093130E+03      0.1151801534E+01
          2                99           0            25   85     1       0.5643827326E+00      31   75    1      -0.5255456053E+06      0.5353091762E+06      0.8216445468E+06      0.1151801534E+01
          3                99           0            25   85     1       0.3950679061E+00      31   75    1      -0.3664253710E+06      0.3664255570E+06      0.5353091762E+06      0.1151801534E+01
          4                99           0            25   85     1       0.2765475296E+00      31   75    1      -0.2550416598E+06      0.2550418873E+06      0.3664255570E+06      0.1151801534E+01
          5                99           0            25   85     1       0.1935832674E+00      31   75    1      -0.1770732842E+06      0.1770735811E+06      0.2550418873E+06      0.1151801534E+01
          6                99           0            25   85     1       0.1355082849E+00      31   75    1      -0.1224955305E+06      0.1224959352E+06      0.1770735811E+06      0.1151801534E+01
          7                99           0            25   85     1       0.9485579779E-01      31   75    1      -0.8429115664E+05      0.8429172446E+05      0.1224959352E+06      0.1151801534E+01
          8                99           0            25   85     1       0.6639905732E-01      31   75    1      -0.5754812138E+05      0.5754893568E+05      0.8429172446E+05      0.1151801534E+01
                                                   Max.-Head-Change                        Max.-Flux-Residual
  Residual-Control   Outer-Iter.   Inner-Iter.     Column Row Layer    Max.-Head-Change    Column Row Layer    Max.-Flux-Residual            L2-New               L2-Old           Solver-Max-Delh
          9                99           0            25   85     1       0.4647933934E-01      31   75    1      -0.3882800975E+05      0.3882920104E+05      0.5754893568E+05      0.1151801534E+01
         10                99           0            25   85     1       0.3253553698E-01      31   75    1      -0.2572393808E+05      0.2572572152E+05      0.3882920104E+05      0.1151801534E+01
         11                99           0            25   85     1       0.2277487550E-01      31   75    1      -0.1655109112E+05      0.1655384825E+05      0.2572572152E+05      0.1151801534E+01
         12                99           0            25   85     1       0.1594241258E-01      31   75    1      -0.1013009986E+05      0.1013458840E+05      0.1655384825E+05      0.1151801534E+01
         13                99           0            25   85     1       0.1115968861E-01      31   75    1      -0.5635406782E+04      0.5643452706E+04      0.1013458840E+05      0.1151801534E+01
         14                99           0            25   85     1       0.7811781897E-02      31   75    1      -0.2489122045E+04      0.2507256601E+04      0.5643452706E+04      0.1151801534E+01
         15                99           0            25   85     1       0.5468247235E-02      31   75    1      -0.2867229425E+03      0.4155966325E+03      0.2507256601E+04      0.1151801534E+01
          0               100           2            25   85     1       0.1151801403E+01      25   85    1       0.1048844604E+03      0.3086093120E+03      0.4155966325E+03      0.1151801403E+01
          1               100           0            25   85     1       0.8062609681E+00      31   75    1      -0.7564588225E+06      0.8263835652E+06      0.3086093120E+03      0.1151801403E+01
          2               100           0            25   85     1       0.5643826681E+00      31   75    1      -0.5291428754E+06      0.5395322613E+06      0.8263835652E+06      0.1151801403E+01
                                                   Max.-Head-Change                        Max.-Flux-Residual
  Residual-Control   Outer-Iter.   Inner-Iter.     Column Row Layer    Max.-Head-Change    Column Row Layer    Max.-Flux-Residual            L2-New               L2-Old           Solver-Max-Delh
          3               100           0            25   85     1       0.3950678609E+00      31   75    1      -0.3700226353E+06      0.3700228206E+06      0.5395322613E+06      0.1151801403E+01
          4               100           0            25   85     1       0.2765474979E+00      31   75    1      -0.2586389202E+06      0.2586391456E+06      0.3700228206E+06      0.1151801403E+01
          5               100           0            25   85     1       0.1935832453E+00      31   75    1      -0.1806705418E+06      0.1806708340E+06      0.2586391456E+06      0.1151801403E+01
          6               100           0            25   85     1       0.1355082694E+00      31   75    1      -0.1260927862E+06      0.1260931807E+06      0.1806708340E+06      0.1151801403E+01
          7               100           0            25   85     1       0.9485578694E-01      31   75    1      -0.8788841095E+05      0.8788895720E+05      0.1260931807E+06      0.1151801403E+01
          8               100           0            25   85     1       0.6639904973E-01      31   75    1      -0.6114537473E+05      0.6114614318E+05      0.8788895720E+05      0.1151801403E+01
          9               100           0            25   85     1       0.4647933402E-01      31   75    1      -0.4242526243E+05      0.4242635532E+05      0.6114614318E+05      0.1151801403E+01
         10               100           0            25   85     1       0.3253553326E-01      31   75    1      -0.2932119029E+05      0.2932275835E+05      0.4242635532E+05      0.1151801403E+01
         11               100           0            25   85     1       0.2277487289E-01      31   75    1      -0.2014834301E+05      0.2015061254E+05      0.2932275835E+05      0.1151801403E+01
         12               100           0            25   85     1       0.1594241075E-01      31   75    1      -0.1372735151E+05      0.1373067053E+05      0.2015061254E+05      0.1151801403E+01
                                                   Max.-Head-Change                        Max.-Flux-Residual
  Residual-Control   Outer-Iter.   Inner-Iter.     Column Row Layer    Max.-Head-Change    Column Row Layer    Max.-Flux-Residual            L2-New               L2-Old           Solver-Max-Delh
         13               100           0            25   85     1       0.1115968734E-01      31   75    1      -0.9232658281E+04      0.9237580594E+04      0.1373067053E+05      0.1151801403E+01
         14               100           0            25   85     1       0.7811781004E-02      31   75    1      -0.6086373431E+04      0.6093825651E+04      0.9237580594E+04      0.1151801403E+01
         15               100           0            25   85     1       0.5468246609E-02      31   75    1      -0.3883974250E+04      0.3895629009E+04      0.6093825651E+04      0.1151801403E+01
         16               100           0            25   85     1       0.3827772561E-02      31   75    1      -0.2342294936E+04      0.2361555879E+04      0.3895629009E+04      0.1151801403E+01
         17               100           0            25   85     1       0.2679440747E-02      31   75    1      -0.1263119477E+04      0.1298469825E+04      0.2361555879E+04      0.1151801403E+01
         18               100           0            25   85     1       0.1875608491E-02      31   75    1      -0.5076966889E+03      0.5901491654E+03      0.1298469825E+04      0.1151801403E+01
          0               101           2            25   85     1       0.1151801357E+01      25   85    1       0.1048844604E+03      0.3013146450E+03      0.5901491654E+03      0.1151801357E+01
          1               101           0            25   85     1       0.8062609365E+00      31   76    1      -0.3341552351E+06      0.3341553711E+06      0.3013146450E+03      0.1151801357E+01
          2               101           0            25   85     1       0.5643826459E+00      31   76    1      -0.1067685475E+06      0.1067689538E+06      0.3341553711E+06      0.1151801357E+01
          0               102           2            25   85     1       0.1151787763E+01      25   85    1       0.1048844604E+03      0.3009213826E+03      0.1067689538E+06      0.1151787763E+01
                                                   Max.-Head-Change                        Max.-Flux-Residual
  Residual-Control   Outer-Iter.   Inner-Iter.     Column Row Layer    Max.-Head-Change    Column Row Layer    Max.-Flux-Residual            L2-New               L2-Old           Solver-Max-Delh
          1               102           0            25   85     1       0.8062514205E+00      31   76    1      -0.7055499785E+06      0.7055500519E+06      0.3009213826E+03      0.1151787763E+01
          2               102           0            25   85     1       0.5643759848E+00      31   76    1      -0.4781629582E+06      0.4781630574E+06      0.7055500519E+06      0.1151787763E+01
          3               102           0            25   85     1       0.3950631826E+00      31   76    1      -0.3189928766E+06      0.3189930185E+06      0.4781630574E+06      0.1151787763E+01
          4               102           0            25   85     1       0.2765442231E+00      31   76    1      -0.2075742281E+06      0.2075744407E+06      0.3189930185E+06      0.1151787763E+01
          5               102           0            25   85     1       0.1935809529E+00      31   76    1      -0.1295813748E+06      0.1295817107E+06      0.2075744407E+06      0.1151787763E+01
          6               102           0            25   85     1       0.1355066647E+00      31   76    1      -0.7498647599E+05      0.7498705228E+05      0.1295817107E+06      0.1151787763E+01
          7               102           0            25   85     1       0.9485466368E-01      31   76    1      -0.3677009534E+05      0.3677126572E+05      0.7498705228E+05      0.1151787763E+01
          8               102           0            25   85     1       0.6639826345E-01      31   76    1      -0.1001865279E+05      0.1002293720E+05      0.3677126572E+05      0.1151787763E+01
          0               103           2            25   85     1       0.1151786164E+01      25   85    1       0.1048844604E+03      0.3009099622E+03      0.1002293720E+05      0.1151786164E+01
          1               103           0            25   85     1       0.8062503010E+00      31   76    1      -0.7492440896E+06      0.7492441601E+06      0.3009099622E+03      0.1151786164E+01
                                                   Max.-Head-Change                        Max.-Flux-Residual
  Residual-Control   Outer-Iter.   Inner-Iter.     Column Row Layer    Max.-Head-Change    Column Row Layer    Max.-Flux-Residual            L2-New               L2-Old           Solver-Max-Delh
          2               103           0            25   85     1       0.5643752011E+00      31   76    1      -0.5218570228E+06      0.5218571151E+06      0.7492441601E+06      0.1151786164E+01
          3               103           0            25   85     1       0.3950626340E+00      31   76    1      -0.3626869086E+06      0.3626870349E+06      0.5218571151E+06      0.1151786164E+01
          4               103           0            25   85     1       0.2765438391E+00      31   76    1      -0.2512682373E+06      0.2512684146E+06      0.3626870349E+06      0.1151786164E+01
          5               103           0            25   85     1       0.1935806841E+00      31   76    1      -0.1732753680E+06      0.1732756211E+06      0.2512684146E+06      0.1151786164E+01
          6               103           0            25   85     1       0.1355064766E+00      31   76    1      -0.1186804581E+06      0.1186808243E+06      0.1732756211E+06      0.1151786164E+01
          7               103           0            25   85     1       0.9485453197E-01      31   76    1      -0.8046406961E+05      0.8046460703E+05      0.1186808243E+06      0.1151786164E+01
          8               103           0            25   85     1       0.6639817125E-01      31   76    1      -0.5371262158E+05      0.5371342419E+05      0.8046460703E+05      0.1151786164E+01
          9               103           0            25   85     1       0.4647871908E-01      31   76    1      -0.3498661977E+05      0.3498784960E+05      0.5371342419E+05      0.1151786164E+01
         10               103           0            25   85     1       0.3253510280E-01      31   76    1      -0.2187842435E+05      0.2188038860E+05      0.3498784960E+05      0.1151786164E+01
         11               103           0            25   85     1       0.2277457158E-01      31   76    1      -0.1270269047E+05      0.1270607063E+05      0.2188038860E+05      0.1151786164E+01
                                                   Max.-Head-Change                        Max.-Flux-Residual
  Residual-Control   Outer-Iter.   Inner-Iter.     Column Row Layer    Max.-Head-Change    Column Row Layer    Max.-Flux-Residual            L2-New               L2-Old           Solver-Max-Delh
         12               103           0            25   85     1       0.1594219983E-01      31   76    1      -0.6279678221E+04      0.6286509323E+04      0.1270607063E+05      0.1151786164E+01
         13               103           0            25   85     1       0.1115953969E-01      31   76    1      -0.1783570382E+04      0.1807466247E+04      0.6286509323E+04      0.1151786164E+01
          0               104           2            25   85     1       0.1151785895E+01      25   85    1       0.1048844604E+03      0.3009082358E+03      0.1807466247E+04      0.1151785895E+01
          1               104           0            25   85     1       0.8062501129E+00      31   76    1      -0.7565877563E+06      0.7565878263E+06      0.3009082358E+03      0.1151785895E+01
          2               104           0            25   85     1       0.5643750694E+00      31   76    1      -0.5292006816E+06      0.5292007729E+06      0.7565878263E+06      0.1151785895E+01
          3               104           0            25   85     1       0.3950625419E+00      31   76    1      -0.3700305620E+06      0.3700306860E+06      0.5292007729E+06      0.1151785895E+01
          4               104           0            25   85     1       0.2765437746E+00      31   76    1      -0.2586118868E+06      0.2586120593E+06      0.3700306860E+06      0.1151785895E+01
          5               104           0            25   85     1       0.1935806389E+00      31   76    1      -0.1806190148E+06      0.1806192579E+06      0.2586120593E+06      0.1151785895E+01
          6               104           0            25   85     1       0.1355064449E+00      31   76    1      -0.1260241030E+06      0.1260244482E+06      0.1806192579E+06      0.1151785895E+01
          7               104           0            25   85     1       0.9485450984E-01      31   76    1      -0.8780771316E+05      0.8780820609E+05      0.1260244482E+06      0.1151785895E+01
                                                   Max.-Head-Change                        Max.-Flux-Residual
  Residual-Control   Outer-Iter.   Inner-Iter.     Column Row Layer    Max.-Head-Change    Column Row Layer    Max.-Flux-Residual            L2-New               L2-Old           Solver-Max-Delh
          8               104           0            25   85     1       0.6639815575E-01      31   76    1      -0.6105626421E+05      0.6105697085E+05      0.8780820609E+05      0.1151785895E+01
          9               104           0            25   85     1       0.4647870824E-01      31   76    1      -0.4233026175E+05      0.4233127896E+05      0.6105697085E+05      0.1151785895E+01
         10               104           0            25   85     1       0.3253509521E-01      31   76    1      -0.2922206587E+05      0.2922353750E+05      0.4233127896E+05      0.1151785895E+01
         11               104           0            25   85     1       0.2277456626E-01      31   76    1      -0.2004633168E+05      0.2004847508E+05      0.2922353750E+05      0.1151785895E+01
         12               104           0            25   85     1       0.1594219611E-01      31   76    1      -0.1362331920E+05      0.1362647123E+05      0.2004847508E+05      0.1151785895E+01
         13               104           0            25   85     1       0.1115953709E-01      31   76    1      -0.9127211210E+04      0.9131913541E+04      0.1362647123E+05      0.1151785895E+01
         14               104           0            25   85     1       0.7811675828E-02      31   76    1      -0.5979935993E+04      0.5987108932E+04      0.9131913541E+04      0.1151785895E+01
         15               104           0            25   85     1       0.5468172987E-02      31   76    1      -0.3776843536E+04      0.3788188379E+04      0.5987108932E+04      0.1151785895E+01
         16               104           0            25   85     1       0.3827721025E-02      31   76    1      -0.2234678921E+04      0.2253797633E+04      0.3788188379E+04      0.1151785895E+01
         17               104           0            25   85     1       0.2679404672E-02      31   76    1      -0.1155163748E+04      0.1191725683E+04      0.2253797633E+04      0.1151785895E+01
                                                   Max.-Head-Change                        Max.-Flux-Residual
  Residual-Control   Outer-Iter.   Inner-Iter.     Column Row Layer    Max.-Head-Change    Column Row Layer    Max.-Flux-Residual            L2-New               L2-Old           Solver-Max-Delh
         18               104           0            25   85     1       0.1875583239E-02      31   76    1      -0.3995031575E+03      0.4953833652E+03      0.1191725683E+04      0.1151785895E+01
          0               105           2            25   85     1       0.1151785850E+01      25   85    1       0.1048844604E+03      0.3005327525E+03      0.4953833652E+03      0.1151785850E+01
          1               105           0            25   85     1       0.8062500812E+00      31   76    1      -0.3976966360E+03      0.4938800448E+03      0.3005327525E+03      0.1151785850E+01
          2               105           0            25   85     1       0.5643750473E+00      31   76    1      -0.2395500073E+03      0.3783376652E+03      0.4938800448E+03      0.1151785850E+01
          0               106           2            25   85     1       0.1151772256E+01      31   76    1      -0.1288472982E+03      0.3199433224E+03      0.3783376652E+03      0.1151772256E+01
          0               107           2            25   85     1       0.1151744516E+01      25   85    1       0.1048844604E+03      0.2929098541E+03      0.3199433224E+03      0.1151744516E+01
          0               108           2            25   85     1       0.1151716777E+01      25   85    1       0.1048844604E+03      0.2928336604E+03      0.2929098541E+03      0.1151716777E+01
          0               109           2            25   85     1       0.1151689040E+01      25   85    1       0.1048844604E+03      0.2928331745E+03      0.2928336604E+03      0.1151689040E+01
          1               109           0            25   85     1       0.8061823143E+00      18  111    1      -0.5963653844E+05      0.5963725696E+05      0.2928331745E+03      0.1151689040E+01
          0               110           2            25   85     1       0.1151669626E+01      25   85    1       0.1048844604E+03      0.2928331030E+03      0.5963725696E+05      0.1151669626E+01
                                                   Max.-Head-Change                        Max.-Flux-Residual
  Residual-Control   Outer-Iter.   Inner-Iter.     Column Row Layer    Max.-Head-Change    Column Row Layer    Max.-Flux-Residual            L2-New               L2-Old           Solver-Max-Delh
          1               110           0            25   85     1       0.8061687243E+00      18  111    1      -0.2287552589E+06      0.2287554587E+06      0.2928331030E+03      0.1151669626E+01
          2               110           0            25   85     1       0.5643180974E+00      18  111    1      -0.1562755597E+06      0.1562758417E+06      0.2287554587E+06      0.1151669626E+01
          3               110           0            25   85     1       0.3950226614E+00      18  111    1      -0.1055398953E+06      0.1055403055E+06      0.1562758417E+06      0.1151669626E+01
          4               110           0            25   85     1       0.2765158583E+00      18  111    1      -0.7002499163E+05      0.7002560469E+05      0.1055403055E+06      0.1151669626E+01
          5               110           0            25   85     1       0.1935610975E+00      18  111    1      -0.4516458932E+05      0.4516553607E+05      0.7002560469E+05      0.1151669626E+01
          6               110           0            25   85     1       0.1354927660E+00      18  111    1      -0.2776232261E+05      0.2776386004E+05      0.4516553607E+05      0.1151669626E+01
          7               110           0            25   85     1       0.9484493455E-01      18  111    1      -0.1558074328E+05      0.1558348047E+05      0.2776386004E+05      0.1151669626E+01
          8               110           0            25   85     1       0.6639145305E-01      18  111    1      -0.7053641406E+04      0.7059683713E+04      0.1558348047E+05      0.1151669626E+01
          9               110           0            25   85     1       0.4647401635E-01      18  111    1      -0.1084671911E+04      0.1123290929E+04      0.7059683713E+04      0.1151669626E+01
          0               111           2            25   85     1       0.1151668507E+01      25   85    1       0.1048844604E+03      0.2928330989E+03      0.1123290929E+04      0.1151668507E+01
                                                   Max.-Head-Change                        Max.-Flux-Residual
  Residual-Control   Outer-Iter.   Inner-Iter.     Column Row Layer    Max.-Head-Change    Column Row Layer    Max.-Flux-Residual            L2-New               L2-Old           Solver-Max-Delh
          1               111           0            25   85     1       0.8061679409E+00      18  111    1      -0.2385046171E+06      0.2385048099E+06      0.2928330989E+03      0.1151668507E+01
          2               111           0            25   85     1       0.5643175490E+00      18  111    1      -0.1660249039E+06      0.1660251705E+06      0.2385048099E+06      0.1151668507E+01
          3               111           0            25   85     1       0.3950222776E+00      18  111    1      -0.1152892296E+06      0.1152896063E+06      0.1660251705E+06      0.1151668507E+01
          4               111           0            25   85     1       0.2765155896E+00      18  111    1      -0.7977431914E+05      0.7977485836E+05      0.1152896063E+06      0.1151668507E+01
          5               111           0            25   85     1       0.1935609094E+00      18  111    1      -0.5491391202E+05      0.5491469174E+05      0.7977485836E+05      0.1151668507E+01
          6               111           0            25   85     1       0.1354926343E+00      18  111    1      -0.3751164194E+05      0.3751278082E+05      0.5491469174E+05      0.1151668507E+01
          7               111           0            25   85     1       0.9484484238E-01      18  111    1      -0.2533006025E+05      0.2533174498E+05      0.3751278082E+05      0.1151668507E+01
          8               111           0            25   85     1       0.6639138854E-01      18  111    1      -0.1680295672E+05      0.1680549499E+05      0.2533174498E+05      0.1151668507E+01
          9               111           0            25   85     1       0.4647397118E-01      18  111    1      -0.1083398607E+05      0.1083792140E+05      0.1680549499E+05      0.1151668507E+01
         10               111           0            25   85     1       0.3253177928E-01      18  111    1      -0.6655707525E+04      0.6662110697E+04      0.1083792140E+05      0.1151668507E+01
                                                   Max.-Head-Change                        Max.-Flux-Residual
  Residual-Control   Outer-Iter.   Inner-Iter.     Column Row Layer    Max.-Head-Change    Column Row Layer    Max.-Flux-Residual            L2-New               L2-Old           Solver-Max-Delh
         11               111           0            25   85     1       0.2277224510E-01      18  111    1      -0.3730913009E+04      0.3742323293E+04      0.6662110697E+04      0.1151668507E+01
         12               111           0            25   85     1       0.1594057130E-01      18  111    1      -0.1683557084E+04      0.1708693715E+04      0.3742323293E+04      0.1151668507E+01
         13               111           0            25   85     1       0.1115839972E-01      18  111    1      -0.2504080598E+03      0.3846727600E+03      0.1708693715E+04      0.1151668507E+01
          0               112           2            25   85     1       0.1151668238E+01      25   85    1       0.1048844604E+03      0.2928330979E+03      0.3846727600E+03      0.1151668238E+01
          1               112           0            25   85     1       0.8061677528E+00      18  111    1      -0.2408454380E+06      0.2408456291E+06      0.2928330979E+03      0.1151668238E+01
          2               112           0            25   85     1       0.5643174173E+00      18  111    1      -0.1683657214E+06      0.1683659845E+06      0.2408456291E+06      0.1151668238E+01
          3               112           0            25   85     1       0.3950221854E+00      18  111    1      -0.1176300448E+06      0.1176304142E+06      0.1683659845E+06      0.1151668238E+01
          4               112           0            25   85     1       0.2765155251E+00      18  111    1      -0.8211513262E+05      0.8211565674E+05      0.1176304142E+06      0.1151668238E+01
          5               112           0            25   85     1       0.1935608643E+00      18  111    1      -0.5725472434E+05      0.5725547246E+05      0.8211565674E+05      0.1151668238E+01
          6               112           0            25   85     1       0.1354926027E+00      18  111    1      -0.3985245346E+05      0.3985352572E+05      0.5725547246E+05      0.1151668238E+01
                                                   Max.-Head-Change                        Max.-Flux-Residual
  Residual-Control   Outer-Iter.   Inner-Iter.     Column Row Layer    Max.-Head-Change    Column Row Layer    Max.-Flux-Residual            L2-New               L2-Old           Solver-Max-Delh
          7               112           0            25   85     1       0.9484482025E-01      18  111    1      -0.2767087120E+05      0.2767241370E+05      0.3985352572E+05      0.1151668238E+01
          8               112           0            25   85     1       0.6639137305E-01      18  111    1      -0.1914376727E+05      0.1914599549E+05      0.2767241370E+05      0.1151668238E+01
          9               112           0            25   85     1       0.4647396034E-01      18  111    1      -0.1317479635E+05      0.1317803294E+05      0.1914599549E+05      0.1151668238E+01
         10               112           0            25   85     1       0.3253177168E-01      18  111    1      -0.8996517610E+04      0.9001256047E+04      0.1317803294E+05      0.1151668238E+01
         11               112           0            25   85     1       0.2277223979E-01      18  111    1      -0.6071722957E+04      0.6078741225E+04      0.9001256047E+04      0.1151668238E+01
         12               112           0            25   85     1       0.1594056758E-01      18  111    1      -0.4024366937E+04      0.4034947504E+04      0.6078741225E+04      0.1151668238E+01
         13               112           0            25   85     1       0.1115839712E-01      18  111    1      -0.2591217846E+04      0.2607619690E+04      0.4034947504E+04      0.1151668238E+01
         14               112           0            25   85     1       0.7810877849E-02      18  111    1      -0.1588013548E+04      0.1614638262E+04      0.2607619690E+04      0.1151668238E+01
         15               112           0            25   85     1       0.5467614402E-02      18  111    1      -0.8857705755E+03      0.9326621863E+03      0.1614638262E+04      0.1151668238E+01
         16               112           0            25   85     1       0.3827330016E-02      18  111    1      -0.3942005148E+03      0.4905741969E+03      0.9326621863E+03      0.1151668238E+01
                                                   Max.-Head-Change                        Max.-Flux-Residual
  Residual-Control   Outer-Iter.   Inner-Iter.     Column Row Layer    Max.-Head-Change    Column Row Layer    Max.-Flux-Residual            L2-New               L2-Old           Solver-Max-Delh
          0               113           2            25   85     1       0.1151668146E+01      25   85    1       0.1048844604E+03      0.2962752395E+03      0.4905741969E+03      0.1151668146E+01
          0               114           2            25   85     1       0.1151640413E+01      25   85    1       0.1048844604E+03      0.2920558239E+03      0.2962752395E+03      0.1151640413E+01
          0               115           2            25   85     1       0.1151612682E+01      25   85    1       0.1048844604E+03      0.2920085065E+03      0.2920558239E+03      0.1151612682E+01
          0               116           2            25   85     1       0.1151584953E+01      25   85    1       0.1048844604E+03      0.2920079891E+03      0.2920085065E+03      0.1151584953E+01
          0               117           2            25   85     1       0.1151557226E+01      25   85    1       0.1048844604E+03      0.2920078875E+03      0.2920079891E+03      0.1151557226E+01
          0               118           2            25   85     1       0.1151529501E+01      25   85    1       0.1048844604E+03      0.2920077873E+03      0.2920078875E+03      0.1151529501E+01
          0               119           2            25   85     1       0.1151501778E+01      25   85    1       0.1048844604E+03      0.2920076870E+03      0.2920077873E+03      0.1151501778E+01
          0               120           2            25   85     1       0.1151474057E+01      25   85    1       0.1048844604E+03      0.2920075869E+03      0.2920076870E+03      0.1151474057E+01
          0               121           2            25   85     1       0.1151446338E+01      25   85    1       0.1048844604E+03      0.2920074867E+03      0.2920075869E+03      0.1151446338E+01
          0               122           2            25   85     1       0.1151418622E+01      25   85    1       0.1048844604E+03      0.2920073867E+03      0.2920074867E+03      0.1151418622E+01
                                                   Max.-Head-Change                        Max.-Flux-Residual
  Residual-Control   Outer-Iter.   Inner-Iter.     Column Row Layer    Max.-Head-Change    Column Row Layer    Max.-Flux-Residual            L2-New               L2-Old           Solver-Max-Delh
          0               123           2            25   85     1       0.1151390907E+01      25   85    1       0.1048844604E+03      0.2920072866E+03      0.2920073867E+03      0.1151390907E+01
          0               124           2            25   85     1       0.1151363195E+01      25   85    1       0.1048844604E+03      0.2920071866E+03      0.2920072866E+03      0.1151363195E+01
          1               124           0            25   85     1       0.8059542225E+00      25   85    1      -0.9307698938E+06      0.9307703720E+06      0.2920071866E+03      0.1151363195E+01
          2               124           0            25   85     1       0.5641679461E+00      25   85    1      -0.5846386164E+06      0.5846389776E+06      0.9307703720E+06      0.1151363195E+01
          3               124           0            25   85     1       0.3949175556E+00      25   85    1      -0.3423497003E+06      0.3423500086E+06      0.5846389776E+06      0.1151363195E+01
          4               124           0            25   85     1       0.2764422842E+00      25   85    1      -0.1727489191E+06      0.1727492658E+06      0.3423500086E+06      0.1151363195E+01
          5               124           0            25   85     1       0.1935095956E+00      25   85    1      -0.5402908840E+05      0.5402985989E+05      0.1727492658E+06      0.1151363195E+01
          0               125           2            25   85     1       0.1151358537E+01      25   85    1       0.1048844604E+03      0.2920071698E+03      0.5402985989E+05      0.1151358537E+01
          1               125           0            25   85     1       0.8059509623E+00      25   85    1      -0.1124681666E+07      0.1124682217E+07      0.2920071698E+03      0.1151358537E+01
          2               125           0            25   85     1       0.5641656640E+00      25   85    1      -0.7785489888E+06      0.7785494128E+06      0.1124682217E+07      0.1151358537E+01
                                                   Max.-Head-Change                        Max.-Flux-Residual
  Residual-Control   Outer-Iter.   Inner-Iter.     Column Row Layer    Max.-Head-Change    Column Row Layer    Max.-Flux-Residual            L2-New               L2-Old           Solver-Max-Delh
          3               125           0            25   85     1       0.3949159581E+00      25   85    1      -0.5362590927E+06      0.5362594400E+06      0.7785494128E+06      0.1151358537E+01
          4               125           0            25   85     1       0.2764411660E+00      25   85    1      -0.3666576255E+06      0.3666579365E+06      0.5362594400E+06      0.1151358537E+01
          5               125           0            25   85     1       0.1935088129E+00      25   85    1      -0.2479373145E+06      0.2479376262E+06      0.3666579365E+06      0.1151358537E+01
          6               125           0            25   85     1       0.1354561667E+00      25   85    1      -0.1648334482E+06      0.1648338020E+06      0.2479376262E+06      0.1151358537E+01
          7               125           0            25   85     1       0.9481931508E-01      25   85    1      -0.1066609141E+06      0.1066613675E+06      0.1648338020E+06      0.1151358537E+01
          8               125           0            25   85     1       0.6637351942E-01      25   85    1      -0.6594022503E+05      0.6594087712E+05      0.1066613675E+06      0.1151358537E+01
          9               125           0            25   85     1       0.4646146281E-01      25   85    1      -0.3743578430E+05      0.3743685383E+05      0.6594087712E+05      0.1151358537E+01
         10               125           0            25   85     1       0.3252302341E-01      25   85    1      -0.1748269629E+05      0.1748489001E+05      0.3743685383E+05      0.1151358537E+01
         11               125           0            25   85     1       0.2276611600E-01      25   85    1      -0.3515544810E+04      0.3526157240E+04      0.1748489001E+05      0.1151358537E+01
          0               126           2            25   85     1       0.1151357989E+01      25   85    1       0.1048844604E+03      0.2920071678E+03      0.3526157240E+04      0.1151357989E+01
                                                   Max.-Head-Change                        Max.-Flux-Residual
  Residual-Control   Outer-Iter.   Inner-Iter.     Column Row Layer    Max.-Head-Change    Column Row Layer    Max.-Flux-Residual            L2-New               L2-Old           Solver-Max-Delh
          1               126           0            25   85     1       0.8059505788E+00      25   85    1      -0.1147495201E+07      0.1147495760E+07      0.2920071678E+03      0.1151357989E+01
          2               126           0            25   85     1       0.5641653955E+00      25   85    1      -0.8013623587E+06      0.8013627907E+06      0.1147495760E+07      0.1151357989E+01
          3               126           0            25   85     1       0.3949157701E+00      25   85    1      -0.5590723473E+06      0.5590727011E+06      0.8013627907E+06      0.1151357989E+01
          4               126           0            25   85     1       0.2764410344E+00      25   85    1      -0.3894707994E+06      0.3894711136E+06      0.5590727011E+06      0.1151357989E+01
          5               126           0            25   85     1       0.1935087208E+00      25   85    1      -0.2707504320E+06      0.2707507402E+06      0.3894711136E+06      0.1151357989E+01
          6               126           0            25   85     1       0.1354561022E+00      25   85    1      -0.1876465260E+06      0.1876468616E+06      0.2707507402E+06      0.1151357989E+01
          7               126           0            25   85     1       0.9481926995E-01      25   85    1      -0.1294739643E+06      0.1294743655E+06      0.1876468616E+06      0.1151357989E+01
          8               126           0            25   85     1       0.6637348784E-01      25   85    1      -0.8875325584E+05      0.8875377230E+05      0.1294743655E+06      0.1151357989E+01
          9               126           0            25   85     1       0.4646144069E-01      25   85    1      -0.6024880154E+05      0.6024950456E+05      0.8875377230E+05      0.1151357989E+01
         10               126           0            25   85     1       0.3252300793E-01      25   85    1      -0.4029570404E+05      0.4029670431E+05      0.6024950456E+05      0.1151357989E+01
                                                   Max.-Head-Change                        Max.-Flux-Residual
  Residual-Control   Outer-Iter.   Inner-Iter.     Column Row Layer    Max.-Head-Change    Column Row Layer    Max.-Flux-Residual            L2-New               L2-Old           Solver-Max-Delh
         11               126           0            25   85     1       0.2276610517E-01      25   85    1      -0.2632854591E+05      0.2633002951E+05      0.4029670431E+05      0.1151357989E+01
         12               126           0            25   85     1       0.1593627334E-01      25   85    1      -0.1655154023E+05      0.1655385307E+05      0.2633002951E+05      0.1151357989E+01
         13               126           0            25   85     1       0.1115539115E-01      25   85    1      -0.9707638746E+04      0.9711530189E+04      0.1655385307E+05      0.1151357989E+01
         14               126           0            25   85     1       0.7808773673E-02      25   85    1      -0.4916908949E+04      0.4924521063E+04      0.9711530189E+04      0.1151357989E+01
         15               126           0            25   85     1       0.5466141478E-02      25   85    1      -0.1563398719E+04      0.1587039172E+04      0.4924521063E+04      0.1151357989E+01
          0               127           2            25   85     1       0.1151357858E+01      25   85    1       0.1048844604E+03      0.2920071673E+03      0.1587039172E+04      0.1151357858E+01
          1               127           0            25   85     1       0.8059504867E+00      25   85    1      -0.1152972731E+07      0.1152973292E+07      0.2920071673E+03      0.1151357858E+01
          2               127           0            25   85     1       0.5641653311E+00      25   85    1      -0.8068398491E+06      0.8068402829E+06      0.1152973292E+07      0.1151357858E+01
          3               127           0            25   85     1       0.3949157250E+00      25   85    1      -0.5645498100E+06      0.5645501653E+06      0.8068402829E+06      0.1151357858E+01
          4               127           0            25   85     1       0.2764410028E+00      25   85    1      -0.3949482427E+06      0.3949485578E+06      0.5645501653E+06      0.1151357858E+01
                                                   Max.-Head-Change                        Max.-Flux-Residual
  Residual-Control   Outer-Iter.   Inner-Iter.     Column Row Layer    Max.-Head-Change    Column Row Layer    Max.-Flux-Residual            L2-New               L2-Old           Solver-Max-Delh
          5               127           0            25   85     1       0.1935086987E+00      25   85    1      -0.2762278617E+06      0.2762281694E+06      0.3949485578E+06      0.1151357858E+01
          6               127           0            25   85     1       0.1354560868E+00      25   85    1      -0.1931239463E+06      0.1931242785E+06      0.2762281694E+06      0.1151357858E+01
          7               127           0            25   85     1       0.9481925912E-01      25   85    1      -0.1349513779E+06      0.1349517697E+06      0.1931242785E+06      0.1151357858E+01
          8               127           0            25   85     1       0.6637348025E-01      25   85    1      -0.9423066479E+05      0.9423115912E+05      0.1349517697E+06      0.1151357858E+01
          9               127           0            25   85     1       0.4646143539E-01      25   85    1      -0.6572620724E+05      0.6572686107E+05      0.9423115912E+05      0.1151357858E+01
         10               127           0            25   85     1       0.3252300422E-01      25   85    1      -0.4577310746E+05      0.4577399962E+05      0.6572686107E+05      0.1151357858E+01
         11               127           0            25   85     1       0.2276610256E-01      25   85    1      -0.3180594773E+05      0.3180719061E+05      0.4577399962E+05      0.1151357858E+01
         12               127           0            25   85     1       0.1593627152E-01      25   85    1      -0.2202894093E+05      0.2203069811E+05      0.3180719061E+05      0.1151357858E+01
         13               127           0            25   85     1       0.1115538988E-01      25   85    1      -0.1518503866E+05      0.1518755284E+05      0.2203069811E+05      0.1151357858E+01
         14               127           0            25   85     1       0.7808772780E-02      25   85    1      -0.1039430832E+05      0.1039794744E+05      0.1518755284E+05      0.1151357858E+01
                                                   Max.-Head-Change                        Max.-Flux-Residual
  Residual-Control   Outer-Iter.   Inner-Iter.     Column Row Layer    Max.-Head-Change    Column Row Layer    Max.-Flux-Residual            L2-New               L2-Old           Solver-Max-Delh
         15               127           0            25   85     1       0.5466140853E-02      25   85    1      -0.7040797706E+04      0.7046135966E+04      0.1039794744E+05      0.1151357858E+01
         16               127           0            25   85     1       0.3826298532E-02      25   85    1      -0.4693340596E+04      0.4701311560E+04      0.7046135966E+04      0.1151357858E+01
         17               127           0            25   85     1       0.2678408927E-02      25   85    1      -0.3050120783E+04      0.3062336653E+04      0.4701311560E+04      0.1151357858E+01
         18               127           0            25   85     1       0.1874886217E-02      25   85    1      -0.1899867001E+04      0.1919378901E+04      0.3062336653E+04      0.1151357858E+01
         19               127           0            25   85     1       0.1312420329E-02      25   85    1      -0.1094689400E+04      0.1128168035E+04      0.1919378901E+04      0.1151357858E+01
         20               127           0            25   85     1       0.9186942150E-03      25   85    1      -0.5310651052E+03      0.5969733997E+03      0.1128168035E+04      0.1151357858E+01
          0               128           2            26   85     1       0.9327946459E+00      25   85    1      -0.1365281129E+03      0.3048565632E+03      0.5969733997E+03      0.9327946459E+00

    ------------------------------------------------
       NWT REQUIRED          128 OUTER ITERATIONS 
       AND A TOTAL OF        256 INNER ITERATIONS.
    ------------------------------------------------

 OUTPUT CONTROL FOR STRESS PERIOD    1   TIME STEP  256
    SAVE HEAD FOR ALL LAYERS
    SAVE DRAWDOWN FOR ALL LAYERS
    SAVE BUDGET
    PRINT BUDGET
 UBDSV1 SAVING "         STORAGE" ON UNIT   9 AT TIME STEP256, STRESS PERIOD   1
 UBDSV2 SAVING "   CONSTANT HEAD" ON UNIT   9 AT TIME STEP256, STRESS PERIOD   1
 UBDSV1 SAVING "FLOW RIGHT FACE " ON UNIT   9 AT TIME STEP256, STRESS PERIOD   1
 UBDSV1 SAVING "FLOW FRONT FACE " ON UNIT   9 AT TIME STEP256, STRESS PERIOD   1
 UBDSV4 SAVING "   RIVER LEAKAGE" ON UNIT   9 AT TIME STEP256, STRESS PERIOD   1
 UBDSV3 SAVING "        RECHARGE" ON UNIT   9 AT TIME STEP256, STRESS PERIOD   1

 HEAD WILL BE SAVED ON UNIT   37 AT END OF TIME STEP  256, STRESS PERIOD    1

 DRAWDOWN WILL BE SAVED ON UNIT   38 AT END OF TIME STEP  256, STRESS PERIOD    1
1
  VOLUMETRIC BUDGET FOR ENTIRE MODEL AT END OF TIME STEP  256, STRESS PERIOD   1
  ------------------------------------------------------------------------------

     CUMULATIVE VOLUMES      L**3       RATES FOR THIS TIME STEP      L**3/T
     ------------------                 ------------------------

           IN:                                      IN:
           ---                                      ---
             STORAGE =   220795296.0000               STORAGE =      689737.8125
       CONSTANT HEAD =           0.0000         CONSTANT HEAD =           0.0000
       RIVER LEAKAGE =  1106928768.0000         RIVER LEAKAGE =     6581662.5000
            RECHARGE =     2433015.0000              RECHARGE =      786389.6250

            TOTAL IN =  1330157056.0000              TOTAL IN =     8057790.0000

          OUT:                                     OUT:
          ----                                     ----
             STORAGE =  1319630592.0000               STORAGE =     7838995.5000
       CONSTANT HEAD =           0.0000         CONSTANT HEAD =           0.0000
       RIVER LEAKAGE =    10942569.0000         RIVER LEAKAGE =      217518.4219
            RECHARGE =           0.0000              RECHARGE =           0.0000

           TOTAL OUT =  1330573184.0000             TOTAL OUT =     8056514.0000

            IN - OUT =     -416128.0000              IN - OUT =        1276.0000

 PERCENT DISCREPANCY =          -0.03     PERCENT DISCREPANCY =           0.02






         TIME SUMMARY AT END OF TIME STEP  256 IN STRESS PERIOD    1
                    SECONDS     MINUTES      HOURS       DAYS        YEARS
                    -----------------------------------------------------------
   TIME STEP LENGTH  86400.      1440.0      24.000      1.0000     2.73785E-03
 STRESS PERIOD TIME 2.21184E+07 3.68640E+05  6144.0      256.00     0.70089    
         TOTAL TIME 2.21184E+07 3.68640E+05  6144.0      256.00     0.70089    
1
 
 SOLVING FOR HEAD 
                                                   Max.-Head-Change                        Max.-Flux-Residual
  Residual-Control   Outer-Iter.   Inner-Iter.     Column Row Layer    Max.-Head-Change    Column Row Layer    Max.-Flux-Residual            L2-New               L2-Old           Solver-Max-Delh
          0                 1           2            43   55     1       0.9985290064E+01      38   82    1       0.3423337412E+06      0.1016411817E+07      0.3048565632E+03      0.9985290064E+01
          1                 1           0            43   55     1       0.6989702926E+01      30   76    1      -0.7008926257E+07      0.9160124421E+07      0.1016411817E+07      0.9985290064E+01
          2                 1           0            43   55     1       0.4892791965E+01      30   76    1      -0.4474908243E+07      0.5334321185E+07      0.9160124421E+07      0.9985290064E+01
          3                 1           0            43   55     1       0.3424954317E+01      30   76    1      -0.2701225218E+07      0.2973255753E+07      0.5334321185E+07      0.9985290064E+01
          4                 1           0            43   55     1       0.2397467981E+01      30   76    1      -0.1459661861E+07      0.1622744667E+07      0.2973255753E+07      0.9985290064E+01
          0                 2           2            26   76     1       0.8446019147E+01      30   76    1      -0.5904159316E+06      0.9722157558E+06      0.1622744667E+07      0.8446019147E+01
          1                 2           0            26   76     1       0.5912213302E+01      30   75    1      -0.7303067261E+07      0.8435637565E+07      0.9722157558E+06      0.8446019147E+01
          2                 2           0            26   76     1       0.4138549241E+01      30   75    1      -0.4795687912E+07      0.5153978753E+07      0.8435637565E+07      0.8446019147E+01
          3                 2           0            26   76     1       0.2896984420E+01      30   75    1      -0.3040697955E+07      0.3090586391E+07      0.5153978753E+07      0.8446019147E+01
          4                 2           0            26   76     1       0.2027889059E+01      30   75    1      -0.1812234714E+07      0.1917313225E+07      0.3090586391E+07      0.8446019147E+01
                                                   Max.-Head-Change                        Max.-Flux-Residual
  Residual-Control   Outer-Iter.   Inner-Iter.     Column Row Layer    Max.-Head-Change    Column Row Layer    Max.-Flux-Residual            L2-New               L2-Old           Solver-Max-Delh
          5                 2           0            26   76     1       0.1419522317E+01      30   75    1      -0.9523388225E+06      0.1199807496E+07      0.1917313225E+07      0.8446019147E+01
          0                 3           2            26   76     1       0.8445887888E+01      30   76    1      -0.4960559594E+06      0.8756892314E+06      0.1199807496E+07      0.8445887888E+01
          1                 3           0            26   76     1       0.5912121421E+01      30   74    1      -0.5413440862E+07      0.5635333518E+07      0.8756892314E+06      0.8445887888E+01
          2                 3           0            26   76     1       0.4138484924E+01      30   74    1      -0.3140966153E+07      0.3160885554E+07      0.5635333518E+07      0.8445887888E+01
          3                 3           0            26   76     1       0.2896939398E+01      30   74    1      -0.1550415143E+07      0.1611781464E+07      0.3160885554E+07      0.8445887888E+01
          0                 4           2            60   15     1       0.5625114068E+02      30   74    1      -0.4371182711E+06      0.7177211186E+06      0.1611781464E+07      0.5625114068E+02
          1                 4           0            60   15     1       0.3937579781E+02      31   73    1      -0.3072553601E+07      0.3246546058E+07      0.7177211186E+06      0.5625114068E+02
          2                 4           0            60   15     1       0.2756305799E+02      31   73    1      -0.1747195891E+07      0.1906593029E+07      0.3246546058E+07      0.5625114068E+02
          3                 4           0            60   15     1       0.1929414027E+02      31   73    1      -0.8194948645E+06      0.1032631448E+07      0.1906593029E+07      0.5625114068E+02
          0                 5           2            60   15     1      -0.1781871640E+02      60   15    1      -0.3526257101E+06      0.6146178793E+06      0.1032631448E+07     -0.1781871640E+02
                                                   Max.-Head-Change                        Max.-Flux-Residual
  Residual-Control   Outer-Iter.   Inner-Iter.     Column Row Layer    Max.-Head-Change    Column Row Layer    Max.-Flux-Residual            L2-New               L2-Old           Solver-Max-Delh
          0                 6           2            26   76     1       0.8444571453E+01      60   15    1      -0.1763127652E+05      0.3701342655E+05      0.6146178793E+06      0.8444571453E+01
          1                 6           0            26   76     1       0.5911199916E+01      29   76    1      -0.7635102201E+07      0.7646583768E+07      0.3701342655E+05      0.8444571453E+01
          2                 6           0            26   76     1       0.4137839871E+01      29   76    1      -0.5126803197E+07      0.5126830938E+07      0.7646583768E+07      0.8444571453E+01
          3                 6           0            26   76     1       0.2896487860E+01      29   76    1      -0.3371143821E+07      0.3371202484E+07      0.5126830938E+07      0.8444571453E+01
          4                 6           0            26   76     1       0.2027541468E+01      29   76    1      -0.2142255730E+07      0.2142401534E+07      0.3371202484E+07      0.8444571453E+01
          5                 6           0            26   76     1       0.1419279003E+01      29   76    1      -0.1282070071E+07      0.1282388839E+07      0.2142401534E+07      0.8444571453E+01
          6                 6           0            26   76     1       0.9934952853E+00      29   76    1      -0.6799577560E+06      0.6806693280E+06      0.1282388839E+07      0.8444571453E+01
          7                 6           0            26   76     1       0.6954466879E+00      29   76    1      -0.2584877838E+06      0.2605711935E+06      0.6806693280E+06      0.8444571453E+01
          0                 7           2            26   76     1       0.8444507167E+01      60   15    1      -0.1625185126E+05      0.3413199844E+05      0.2605711935E+06      0.8444507167E+01
          1                 7           0            26   76     1       0.5911154916E+01      29   76    1      -0.8323594846E+07      0.8340503501E+07      0.3413199844E+05      0.8444507167E+01
                                                   Max.-Head-Change                        Max.-Flux-Residual
  Residual-Control   Outer-Iter.   Inner-Iter.     Column Row Layer    Max.-Head-Change    Column Row Layer    Max.-Flux-Residual            L2-New               L2-Old           Solver-Max-Delh
          2                 7           0            26   76     1       0.4137808371E+01      29   76    1      -0.5815261304E+07      0.5816573723E+07      0.8340503501E+07      0.8444507167E+01
          3                 7           0            26   76     1       0.2896465810E+01      29   76    1      -0.4059577744E+07      0.4059619338E+07      0.5816573723E+07      0.8444507167E+01
          4                 7           0            26   76     1       0.2027526033E+01      29   76    1      -0.2830672719E+07      0.2830766649E+07      0.4059619338E+07      0.8444507167E+01
          5                 7           0            26   76     1       0.1419268199E+01      29   76    1      -0.1970475205E+07      0.1970651601E+07      0.2830766649E+07      0.8444507167E+01
          6                 7           0            26   76     1       0.9934877221E+00      29   76    1      -0.1368354589E+07      0.1368655307E+07      0.1970651601E+07      0.8444507167E+01
          7                 7           0            26   76     1       0.6954413936E+00      29   76    1      -0.9468788066E+06      0.9473640473E+06      0.1368655307E+07      0.8444507167E+01
          8                 7           0            26   76     1       0.4868089673E+00      29   76    1      -0.6518499977E+06      0.6526086699E+06      0.9473640473E+06      0.8444507167E+01
          9                 7           0            26   76     1       0.3407662713E+00      29   76    1      -0.4453319096E+06      0.4464987011E+06      0.6526086699E+06      0.8444507167E+01
         10                 7           0            26   76     1       0.2385363858E+00      29   76    1      -0.3007702670E+06      0.3025553729E+06      0.4464987011E+06      0.8444507167E+01
         11                 7           0            26   76     1       0.1669754672E+00      29   76    1      -0.1995776170E+06      0.2023217682E+06      0.3025553729E+06      0.8444507167E+01
                                                   Max.-Head-Change                        Max.-Flux-Residual
  Residual-Control   Outer-Iter.   Inner-Iter.     Column Row Layer    Max.-Head-Change    Column Row Layer    Max.-Flux-Residual            L2-New               L2-Old           Solver-Max-Delh
         12                 7           0            26   76     1       0.1168828251E+00      29   76    1      -0.1287430073E+06      0.1330260533E+06      0.2023217682E+06      0.8444507167E+01
         13                 7           0            26   76     1       0.8181797616E-01      29   76    1      -0.7915890099E+05      0.8602440798E+05      0.1330260533E+06      0.8444507167E+01
         14                 7           0            26   76     1       0.5727258234E-01      29   76    1      -0.4445008575E+05      0.5584756552E+05      0.8602440798E+05      0.8444507167E+01
         15                 7           0            26   76     1       0.4009080695E-01      29   76    1      -0.2015394421E+05      0.3944230006E+05      0.5584756552E+05      0.8444507167E+01
          0                 8           2            26   76     1       0.8444503461E+01      60   15    1      -0.1617855091E+05      0.3411578667E+05      0.3944230006E+05      0.8444503461E+01
          1                 8           0            26   76     1       0.5911152322E+01      26   85    1      -0.5372465510E+06      0.5372550102E+06      0.3411578667E+05      0.8444503461E+01
          2                 8           0            26   76     1       0.4137806555E+01      26   85    1      -0.1294358854E+06      0.1299597769E+06      0.5372550102E+06      0.8444503461E+01
          0                 9           2            26   76     1       0.8444120989E+01      60   15    1      -0.8647197691E+04      0.1835083961E+05      0.1299597769E+06      0.8444120989E+01
          1                 9           0            26   76     1       0.5910884592E+01      26   85    1      -0.1203318237E+07      0.1563321280E+07      0.1835083961E+05      0.8444120989E+01
          2                 9           0            26   76     1       0.4137619144E+01      26   85    1      -0.7955051040E+06      0.7955325169E+06      0.1563321280E+07      0.8444120989E+01
                                                   Max.-Head-Change                        Max.-Flux-Residual
  Residual-Control   Outer-Iter.   Inner-Iter.     Column Row Layer    Max.-Head-Change    Column Row Layer    Max.-Flux-Residual            L2-New               L2-Old           Solver-Max-Delh
          3                 9           0            26   76     1       0.2896333351E+01      26   85    1      -0.5100408370E+06      0.5101395156E+06      0.7955325169E+06      0.8444120989E+01
          4                 9           0            26   76     1       0.2027433311E+01      26   85    1      -0.3102182649E+06      0.3104701818E+06      0.5101395156E+06      0.8444120989E+01
          5                 9           0            26   76     1       0.1419203294E+01      26   85    1      -0.1703436483E+06      0.1709386548E+06      0.3104701818E+06      0.8444120989E+01
          6                 9           0            26   76     1       0.9934422887E+00      26   85    1      -0.7243199736E+05      0.7406708990E+05      0.1709386548E+06      0.8444120989E+01
          0                10           2            26   76     1       0.8444029166E+01      60   15    1      -0.7680689618E+04      0.1679550693E+05      0.7406708990E+05      0.8444029166E+01
          1                10           0            26   76     1       0.5910820316E+01      30   77    1      -0.1621610297E+07      0.1621612544E+07      0.1679550693E+05      0.8444029166E+01
          2                10           0            26   76     1       0.4137574150E+01      30   77    1      -0.3161424288E+05      0.3218947239E+05      0.1621612544E+07      0.8444029166E+01
          0                11           2            26   76     1       0.8443646755E+01      60   15    1      -0.4105140450E+04      0.9210413095E+04      0.3218947239E+05      0.8443646755E+01
          1                11           0            26   76     1       0.5910552628E+01      30   77    1      -0.4219046772E+07      0.4219048146E+07      0.9210413095E+04      0.8443646755E+01
          2                11           0            26   76     1       0.4137386769E+01      30   77    1      -0.2628826498E+07      0.2628829691E+07      0.4219048146E+07      0.8443646755E+01
                                                   Max.-Head-Change                        Max.-Flux-Residual
  Residual-Control   Outer-Iter.   Inner-Iter.     Column Row Layer    Max.-Head-Change    Column Row Layer    Max.-Flux-Residual            L2-New               L2-Old           Solver-Max-Delh
          3                11           0            26   76     1       0.2896170689E+01      30   77    1      -0.1515727289E+07      0.1515736864E+07      0.2628829691E+07      0.8443646755E+01
          4                11           0            26   76     1       0.2027319448E+01      30   77    1      -0.7365847876E+06      0.7366131454E+06      0.1515736864E+07      0.8443646755E+01
          5                11           0            26   76     1       0.1419123589E+01      30   77    1      -0.1911982429E+06      0.1913361160E+06      0.7366131454E+06      0.8443646755E+01
          0                12           2            26   76     1       0.8443515602E+01      60   15    1      -0.3449645684E+04      0.7851816699E+04      0.1913361160E+06      0.8443515602E+01
          1                12           0            26   76     1       0.5910460820E+01      30   77    1      -0.5109968548E+07      0.5200449429E+07      0.7851816699E+04      0.8443515602E+01
          2                12           0            26   76     1       0.4137322504E+01      30   77    1      -0.3519700387E+07      0.3519702648E+07      0.5200449429E+07      0.8443515602E+01
          3                12           0            26   76     1       0.2896125703E+01      30   77    1      -0.2406567658E+07      0.2406572541E+07      0.3519702648E+07      0.8443515602E+01
          4                12           0            26   76     1       0.2027287958E+01      30   77    1      -0.1627401694E+07      0.1627411500E+07      0.2406572541E+07      0.8443515602E+01
          5                12           0            26   76     1       0.1419101546E+01      30   77    1      -0.1081998725E+07      0.1082016896E+07      0.1627411500E+07      0.8443515602E+01
          6                12           0            26   76     1       0.9933710655E+00      30   77    1      -0.7002231196E+06      0.7002554260E+06      0.1082016896E+07      0.8443515602E+01
                                                   Max.-Head-Change                        Max.-Flux-Residual
  Residual-Control   Outer-Iter.   Inner-Iter.     Column Row Layer    Max.-Head-Change    Column Row Layer    Max.-Flux-Residual            L2-New               L2-Old           Solver-Max-Delh
          7                12           0            26   76     1       0.6953597340E+00      30   77    1      -0.4329833691E+06      0.4330408153E+06      0.7002554260E+06      0.8443515602E+01
          8                12           0            26   76     1       0.4867518055E+00      30   77    1      -0.2459170996E+06      0.2460249980E+06      0.4330408153E+06      0.8443515602E+01
          9                12           0            26   76     1       0.3407262581E+00      30   77    1      -0.1149714739E+06      0.1152125721E+06      0.2460249980E+06      0.8443515602E+01
         10                12           0            26   76     1       0.2385083766E+00      30   77    1      -0.2330991026E+05      0.2450679676E+05      0.1152125721E+06      0.8443515602E+01
          0                13           2            26   76     1       0.8443493559E+01      60   15    1      -0.3357067121E+04      0.7661676385E+04      0.2450679676E+05      0.8443493559E+01
          1                13           0            26   76     1       0.5910445391E+01      30   77    1      -0.5259705262E+07      0.5394853404E+07      0.7661676385E+04      0.8443493559E+01
          2                13           0            26   76     1       0.4137311703E+01      30   77    1      -0.3669429946E+07      0.3669432116E+07      0.5394853404E+07      0.8443493559E+01
          3                13           0            26   76     1       0.2896118143E+01      30   77    1      -0.2556292209E+07      0.2556296686E+07      0.3669432116E+07      0.8443493559E+01
          4                13           0            26   76     1       0.2027282665E+01      30   77    1      -0.1777122738E+07      0.1777131386E+07      0.2556296686E+07      0.8443493559E+01
          5                13           0            26   76     1       0.1419097842E+01      30   77    1      -0.1231717316E+07      0.1231732610E+07      0.1777131386E+07      0.8443493559E+01
                                                   Max.-Head-Change                        Max.-Flux-Residual
  Residual-Control   Outer-Iter.   Inner-Iter.     Column Row Layer    Max.-Head-Change    Column Row Layer    Max.-Flux-Residual            L2-New               L2-Old           Solver-Max-Delh
          6                13           0            26   76     1       0.9933684723E+00      30   77    1      -0.8499399926E+06      0.8499654289E+06      0.1231732610E+07      0.8443493559E+01
          7                13           0            26   76     1       0.6953579187E+00      30   77    1      -0.5826990397E+06      0.5827397776E+06      0.8499654289E+06      0.8443493559E+01
          8                13           0            26   76     1       0.4867505348E+00      30   77    1      -0.3956319285E+06      0.3956958876E+06      0.5827397776E+06      0.8443493559E+01
          9                13           0            26   76     1       0.3407253686E+00      30   77    1      -0.2646857136E+06      0.2647856050E+06      0.3956958876E+06      0.8443493559E+01
         10                13           0            26   76     1       0.2385077539E+00      30   77    1      -0.1730237376E+06      0.1731812274E+06      0.2647856050E+06      0.8443493559E+01
         11                13           0            26   76     1       0.1669554249E+00      30   77    1      -0.1088605381E+06      0.1091160125E+06      0.1731812274E+06      0.8443493559E+01
         12                13           0            26   76     1       0.1168687955E+00      30   77    1      -0.6394638874E+05      0.6438673996E+05      0.1091160125E+06      0.8443493559E+01
         13                13           0            26   76     1       0.8180815542E-01      30   77    1      -0.3250652858E+05      0.3337315900E+05      0.6438673996E+05      0.8443493559E+01
         14                13           0            26   76     1       0.5726570782E-01      30   77    1      -0.1049864833E+05      0.1295084789E+05      0.3337315900E+05      0.8443493559E+01
          0                14           2            26   76     1       0.8443488267E+01      60   15    1      -0.3335435321E+04      0.7617323447E+04      0.1295084789E+05      0.8443488267E+01
                                                   Max.-Head-Change                        Max.-Flux-Residual
  Residual-Control   Outer-Iter.   Inner-Iter.     Column Row Layer    Max.-Head-Change    Column Row Layer    Max.-Flux-Residual            L2-New               L2-Old           Solver-Max-Delh
          1                14           0            26   76     1       0.5910441686E+01      30   77    1      -0.5295657030E+07      0.5442608619E+07      0.7617323447E+04      0.8443488267E+01
          2                14           0            26   76     1       0.4137309110E+01      30   77    1      -0.3705380027E+07      0.3705382177E+07      0.5442608619E+07      0.8443488267E+01
          3                14           0            26   76     1       0.2896116328E+01      30   77    1      -0.2592241108E+07      0.2592245497E+07      0.3705382177E+07      0.8443488267E+01
          4                14           0            26   76     1       0.2027281395E+01      30   77    1      -0.1813070811E+07      0.1813079214E+07      0.2592245497E+07      0.8443488267E+01
          5                14           0            26   76     1       0.1419096952E+01      30   77    1      -0.1267664810E+07      0.1267679522E+07      0.1813079214E+07      0.8443488267E+01
          6                14           0            26   76     1       0.9933678496E+00      30   77    1      -0.8858870815E+06      0.8859112271E+06      0.1267679522E+07      0.8443488267E+01
          7                14           0            26   76     1       0.6953574829E+00      30   77    1      -0.6186458450E+06      0.6186837959E+06      0.8859112271E+06      0.8443488267E+01
          8                14           0            26   76     1       0.4867502297E+00      30   77    1      -0.4315785352E+06      0.4316365139E+06      0.6186837959E+06      0.8443488267E+01
          9                14           0            26   76     1       0.3407251550E+00      30   77    1      -0.3006321814E+06      0.3007191400E+06      0.4316365139E+06      0.8443488267E+01
         10                14           0            26   76     1       0.2385076044E+00      30   77    1      -0.2089701080E+06      0.2090990432E+06      0.3007191400E+06      0.8443488267E+01
                                                   Max.-Head-Change                        Max.-Flux-Residual
  Residual-Control   Outer-Iter.   Inner-Iter.     Column Row Layer    Max.-Head-Change    Column Row Layer    Max.-Flux-Residual            L2-New               L2-Old           Solver-Max-Delh
         11                14           0            26   76     1       0.1669553203E+00      30   77    1      -0.1448068405E+06      0.1449968005E+06      0.2090990432E+06      0.8443488267E+01
         12                14           0            26   76     1       0.1168687222E+00      30   77    1      -0.9989264342E+05      0.1001718723E+06      0.1449968005E+06      0.8443488267E+01
         13                14           0            26   76     1       0.8180810415E-01      30   77    1      -0.6845274989E+05      0.6886375181E+05      0.1001718723E+06      0.8443488267E+01
         14                14           0            26   76     1       0.5726567193E-01      30   77    1      -0.4644484629E+05      0.4705278817E+05      0.6886375181E+05      0.8443488267E+01
         15                14           0            26   76     1       0.4008596967E-01      30   77    1      -0.3103932455E+05      0.3194627628E+05      0.4705278817E+05      0.8443488267E+01
         16                14           0            26   76     1       0.2806017829E-01      30   77    1      -0.2025546469E+05      0.2162424427E+05      0.3194627628E+05      0.8443488267E+01
         17                14           0            26   76     1       0.1964212447E-01      30   77    1      -0.1270676543E+05      0.1479613739E+05      0.2162424427E+05      0.8443488267E+01
         18                14           0            26   76     1       0.1374948689E-01      30   77    1      -0.7422677288E+04      0.1061404055E+05      0.1479613739E+05      0.8443488267E+01
         19                14           0            26   76     1       0.9624640661E-02      30   77    1      -0.3723816255E+04      0.8455598031E+04      0.1061404055E+05      0.8443488267E+01
          0                15           2            26   76     1       0.8443487377E+01      60   15    1      -0.3331823053E+04      0.7678915243E+04      0.8455598031E+04      0.8443487377E+01
                                                   Max.-Head-Change                        Max.-Flux-Residual
  Residual-Control   Outer-Iter.   Inner-Iter.     Column Row Layer    Max.-Head-Change    Column Row Layer    Max.-Flux-Residual            L2-New               L2-Old           Solver-Max-Delh
          1                15           0            26   76     1       0.5910441064E+01      28   76    1      -0.1265628000E+07      0.1265630448E+07      0.7678915243E+04      0.8443487377E+01
          0                16           2            26   76     1       0.8442941187E+01      60   15    1      -0.1115927474E+04      0.3418829180E+04      0.1265630448E+07      0.8442941187E+01
          1                16           0            26   76     1       0.5910058730E+01      28   76    1      -0.7067702282E+07      0.7067703673E+07      0.3418829180E+04      0.8442941187E+01
          2                16           0            26   76     1       0.4137041041E+01      28   76    1      -0.4580854849E+07      0.4580856209E+07      0.7067703673E+07      0.8442941187E+01
          3                16           0            26   76     1       0.2895928679E+01      28   76    1      -0.2840181933E+07      0.2840183668E+07      0.4580856209E+07      0.8442941187E+01
          4                16           0            26   76     1       0.2027150041E+01      28   76    1      -0.1621769837E+07      0.1621772660E+07      0.2840183668E+07      0.8442941187E+01
          5                16           0            26   76     1       0.1419005005E+01      28   76    1      -0.7689102585E+06      0.7689162315E+06      0.1621772660E+07      0.8442941187E+01
          6                16           0            26   76     1       0.9933034862E+00      28   76    1      -0.1719227115E+06      0.1719501987E+06      0.7689162315E+06      0.8442941187E+01
          0                17           2            26   76     1       0.8442849401E+01      60   15    1      -0.9911896779E+03      0.3229168284E+04      0.1719501987E+06      0.8442849401E+01
          1                17           0            26   76     1       0.5909994480E+01      28   76    1      -0.8042879843E+07      0.8042881314E+07      0.3229168284E+04      0.8442849401E+01
                                                   Max.-Head-Change                        Max.-Flux-Residual
  Residual-Control   Outer-Iter.   Inner-Iter.     Column Row Layer    Max.-Head-Change    Column Row Layer    Max.-Flux-Residual            L2-New               L2-Old           Solver-Max-Delh
          2                17           0            26   76     1       0.4136996066E+01      28   76    1      -0.5555967055E+07      0.5555968406E+07      0.8042881314E+07      0.8442849401E+01
          3                17           0            26   76     1       0.2895897197E+01      28   76    1      -0.3815272845E+07      0.3815274334E+07      0.5555968406E+07      0.8442849401E+01
          4                17           0            26   76     1       0.2027128003E+01      28   76    1      -0.2596845842E+07      0.2596847748E+07      0.3815274334E+07      0.8442849401E+01
          5                17           0            26   76     1       0.1418989578E+01      28   76    1      -0.1743975826E+07      0.1743978519E+07      0.2596847748E+07      0.8442849401E+01
          6                17           0            26   76     1       0.9932926877E+00      28   76    1      -0.1146980972E+07      0.1146985017E+07      0.1743978519E+07      0.8442849401E+01
          7                17           0            26   76     1       0.6953048695E+00      28   76    1      -0.7290915142E+06      0.7290979014E+06      0.1146985017E+07      0.8442849401E+01
          8                17           0            26   76     1       0.4867134004E+00      28   76    1      -0.4365722952E+06      0.4365830543E+06      0.7290979014E+06      0.8442849401E+01
          9                17           0            26   76     1       0.3406993745E+00      28   76    1      -0.2318105099E+06      0.2318309514E+06      0.4365830543E+06      0.8442849401E+01
         10                17           0            26   76     1       0.2384895581E+00      28   76    1      -0.8847807812E+05      0.8853202311E+05      0.2318309514E+06      0.8442849401E+01
          0                18           2            26   76     1       0.8442827364E+01      60   15    1      -0.9645875995E+03      0.3190288788E+04      0.8853202311E+05      0.8442827364E+01
                                                   Max.-Head-Change                        Max.-Flux-Residual
  Residual-Control   Outer-Iter.   Inner-Iter.     Column Row Layer    Max.-Head-Change    Column Row Layer    Max.-Flux-Residual            L2-New               L2-Old           Solver-Max-Delh
          1                18           0            26   76     1       0.5909979054E+01      28   76    1      -0.8277022011E+07      0.8277023504E+07      0.3190288788E+04      0.8442827364E+01
          2                18           0            26   76     1       0.4136985267E+01      28   76    1      -0.5790091321E+07      0.5790092677E+07      0.8277023504E+07      0.8442827364E+01
          3                18           0            26   76     1       0.2895889638E+01      28   76    1      -0.4049392055E+07      0.4049393512E+07      0.5790092677E+07      0.8442827364E+01
          4                18           0            26   76     1       0.2027122712E+01      28   76    1      -0.2830961512E+07      0.2830963307E+07      0.4049393512E+07      0.8442827364E+01
          5                18           0            26   76     1       0.1418985874E+01      28   76    1      -0.1978089018E+07      0.1978091428E+07      0.2830963307E+07      0.8442827364E+01
          6                18           0            26   76     1       0.9932900950E+00      28   76    1      -0.1381092430E+07      0.1381095808E+07      0.1978091428E+07      0.8442827364E+01
          7                18           0            26   76     1       0.6953030547E+00      28   76    1      -0.9632017570E+06      0.9632065881E+06      0.1381095808E+07      0.8442827364E+01
          8                18           0            26   76     1       0.4867121300E+00      28   76    1      -0.6706816879E+06      0.6706886540E+06      0.9632065881E+06      0.8442827364E+01
          9                18           0            26   76     1       0.3406984852E+00      28   76    1      -0.4659193075E+06      0.4659293917E+06      0.6706886540E+06      0.8442827364E+01
         10                18           0            26   76     1       0.2384889356E+00      28   76    1      -0.3225864591E+06      0.3226011014E+06      0.4659293917E+06      0.8442827364E+01
                                                   Max.-Head-Change                        Max.-Flux-Residual
  Residual-Control   Outer-Iter.   Inner-Iter.     Column Row Layer    Max.-Head-Change    Column Row Layer    Max.-Flux-Residual            L2-New               L2-Old           Solver-Max-Delh
         11                18           0            26   76     1       0.1669422521E+00      28   76    1      -0.2222538666E+06      0.2222752114E+06      0.3226011014E+06      0.8442827364E+01
         12                18           0            26   76     1       0.1168595744E+00      28   76    1      -0.1520212489E+06      0.1520525585E+06      0.2222752114E+06      0.8442827364E+01
         13                18           0            26   76     1       0.8180170072E-01      28   76    1      -0.1028585132E+06      0.1029048984E+06      0.1520525585E+06      0.8442827364E+01
         14                18           0            26   76     1       0.5726118953E-01      28   76    1      -0.6844464591E+05      0.6851446136E+05      0.1029048984E+06      0.8442827364E+01
         15                18           0            26   76     1       0.4008283199E-01      28   76    1      -0.4435496222E+05      0.4446276129E+05      0.6851446136E+05      0.8442827364E+01
         16                18           0            26   76     1       0.2805798191E-01      28   76    1      -0.2749219521E+05      0.2766594055E+05      0.4446276129E+05      0.8442827364E+01
         17                18           0            26   76     1       0.1964058701E-01      28   76    1      -0.1568826403E+05      0.1599098136E+05      0.2766594055E+05      0.8442827364E+01
         18                18           0            26   76     1       0.1374841067E-01      28   76    1      -0.7425515063E+04      0.8045659924E+04      0.1599098136E+05      0.8442827364E+01
          0                19           2            26   76     1       0.8442826093E+01      28   76    1      -0.1641592210E+04      0.3506048303E+04      0.8045659924E+04      0.8442826093E+01
          0                20           2            26   76     1       0.8442045975E+01      27   76    1       0.7677557288E+03      0.2272635302E+04      0.3506048303E+04      0.8442045975E+01
                                                   Max.-Head-Change                        Max.-Flux-Residual
  Residual-Control   Outer-Iter.   Inner-Iter.     Column Row Layer    Max.-Head-Change    Column Row Layer    Max.-Flux-Residual            L2-New               L2-Old           Solver-Max-Delh
          1                20           0            26   76     1       0.5909432082E+01      31   77    1      -0.4112886051E+06      0.4112948548E+06      0.2272635302E+04      0.8442045975E+01
          0                21           2            26   76     1       0.8441500030E+01      27   76    1       0.7677300864E+03      0.2269129893E+04      0.4112948548E+06      0.8441500030E+01
          1                21           0            26   76     1       0.5909049921E+01      31   77    1      -0.2182766797E+07      0.2182769070E+07      0.2269129893E+04      0.8441500030E+01
          2                21           0            26   76     1       0.4136334874E+01      31   77    1      -0.1423519615E+07      0.1423521640E+07      0.2182769070E+07      0.8441500030E+01
          3                21           0            26   76     1       0.2895434362E+01      31   77    1      -0.8920597913E+06      0.8920627680E+06      0.1423521640E+07      0.8441500030E+01
          4                21           0            26   76     1       0.2026804019E+01      31   77    1      -0.5200443860E+06      0.5200493559E+06      0.8920627680E+06      0.8441500030E+01
          5                21           0            26   76     1       0.1418762789E+01      31   77    1      -0.2596367746E+06      0.2596466236E+06      0.5200493559E+06      0.8441500030E+01
          6                21           0            26   76     1       0.9931339356E+00      31   77    1      -0.7735300199E+05      0.7738594430E+05      0.2596466236E+06      0.8441500030E+01
          0                22           2            26   76     1       0.8441408284E+01      27   76    1       0.7677261729E+03      0.2269033923E+04      0.7738594430E+05      0.8441408284E+01
          1                22           0            26   76     1       0.5908985698E+01      31   77    1      -0.2480485722E+07      0.2480488329E+07      0.2269033923E+04      0.8441408284E+01
                                                   Max.-Head-Change                        Max.-Flux-Residual
  Residual-Control   Outer-Iter.   Inner-Iter.     Column Row Layer    Max.-Head-Change    Column Row Layer    Max.-Flux-Residual            L2-New               L2-Old           Solver-Max-Delh
          2                22           0            26   76     1       0.4136289918E+01      31   77    1      -0.1721240642E+07      0.1721242617E+07      0.2480488329E+07      0.8441408284E+01
          3                22           0            26   76     1       0.2895402894E+01      31   77    1      -0.1189782289E+07      0.1189784592E+07      0.1721242617E+07      0.8441408284E+01
          4                22           0            26   76     1       0.2026781991E+01      31   77    1      -0.8177679135E+06      0.8177711398E+06      0.1189784592E+07      0.8441408284E+01
          5                22           0            26   76     1       0.1418747370E+01      31   77    1      -0.5573610227E+06      0.5573656697E+06      0.8177711398E+06      0.8441408284E+01
          6                22           0            26   76     1       0.9931231418E+00      31   77    1      -0.3750777545E+06      0.3750845988E+06      0.5573656697E+06      0.8441408284E+01
          7                22           0            26   76     1       0.6951861874E+00      31   77    1      -0.2474802295E+06      0.2474905590E+06      0.3750845988E+06      0.8441408284E+01
          8                22           0            26   76     1       0.4866303229E+00      31   77    1      -0.1581623362E+06      0.1581784671E+06      0.2474905590E+06      0.8441408284E+01
          9                22           0            26   76     1       0.3406412202E+00      31   77    1      -0.9563999461E+05      0.9566664498E+05      0.1581784671E+06      0.8441408284E+01
         10                22           0            26   76     1       0.2384488501E+00      31   77    1      -0.5187444570E+05      0.5192354577E+05      0.9566664498E+05      0.8441408284E+01
         11                22           0            26   76     1       0.1669141922E+00      31   77    1      -0.2123860584E+05      0.2135823323E+05      0.5192354577E+05      0.8441408284E+01
                                                   Max.-Head-Change                        Max.-Flux-Residual
  Residual-Control   Outer-Iter.   Inner-Iter.     Column Row Layer    Max.-Head-Change    Column Row Layer    Max.-Flux-Residual            L2-New               L2-Old           Solver-Max-Delh
          0                23           2            26   76     1       0.8441392865E+01      27   76    1       0.7677255188E+03      0.2265558618E+04      0.2135823323E+05      0.8441392865E+01
          1                23           0            26   76     1       0.5908974905E+01      27   76    1      -0.9013917699E+05      0.9020121639E+05      0.2265558618E+04      0.8441392865E+01
          0                24           2            26   76     1       0.8440847033E+01      31   95    1      -0.1045594875E+04      0.2487649557E+04      0.9020121639E+05      0.8440847033E+01
          1                24           0            26   76     1       0.5908592822E+01      27   76    1      -0.6002698861E+07      0.6002699457E+07      0.2487649557E+04      0.8440847033E+01
          2                24           0            26   76     1       0.4136014905E+01      27   76    1      -0.3468526602E+07      0.3468527439E+07      0.6002699457E+07      0.8440847033E+01
          3                24           0            26   76     1       0.2895210384E+01      27   76    1      -0.1694739148E+07      0.1694740706E+07      0.3468527439E+07      0.8440847033E+01
          4                24           0            26   76     1       0.2026647235E+01      27   76    1      -0.4531531689E+06      0.4531588041E+06      0.1694740706E+07      0.8440847033E+01
          0                25           2            26   76     1       0.8440659840E+01      31   95    1      -0.8070999233E+03      0.2397093307E+04      0.4531588041E+06      0.8440659840E+01
          1                25           0            26   76     1       0.5908461787E+01      27   76    1      -0.8030743862E+07      0.8030744410E+07      0.2397093307E+04      0.8440659840E+01
          2                25           0            26   76     1       0.4135923181E+01      27   76    1      -0.5496482135E+07      0.5496482761E+07      0.8030744410E+07      0.8440659840E+01
                                                   Max.-Head-Change                        Max.-Flux-Residual
  Residual-Control   Outer-Iter.   Inner-Iter.     Column Row Layer    Max.-Head-Change    Column Row Layer    Max.-Flux-Residual            L2-New               L2-Old           Solver-Max-Delh
          3                25           0            26   76     1       0.2895146177E+01      27   76    1      -0.3722632043E+07      0.3722632847E+07      0.5496482761E+07      0.8440659840E+01
          4                25           0            26   76     1       0.2026602289E+01      27   76    1      -0.2481002212E+07      0.2481003330E+07      0.3722632847E+07      0.8440659840E+01
          5                25           0            26   76     1       0.1418621578E+01      27   76    1      -0.1611893299E+07      0.1611894953E+07      0.2481003330E+07      0.8440659840E+01
          6                25           0            26   76     1       0.9930350880E+00      27   76    1      -0.1003532728E+07      0.1003535327E+07      0.1611894953E+07      0.8440659840E+01
          7                25           0            26   76     1       0.6951245498E+00      27   76    1      -0.5776880080E+06      0.5776924702E+06      0.1003535327E+07      0.8440659840E+01
          8                25           0            26   76     1       0.4865871766E+00      27   76    1      -0.2796004683E+06      0.2796096276E+06      0.5776924702E+06      0.8440659840E+01
          9                25           0            26   76     1       0.3406110178E+00      27   76    1      -0.7094103608E+05      0.7097699288E+05      0.2796096276E+06      0.8440659840E+01
          0                26           2            26   76     1       0.8440628379E+01      31   95    1      -0.7761586780E+03      0.2386841838E+04      0.7097699288E+05      0.8440628379E+01
          1                26           0            26   76     1       0.5908439765E+01      27   76    1      -0.8371599376E+07      0.8371599921E+07      0.2386841838E+04      0.8440628379E+01
          2                26           0            26   76     1       0.4135907765E+01      27   76    1      -0.5837322613E+07      0.5837323222E+07      0.8371599921E+07      0.8440628379E+01
                                                   Max.-Head-Change                        Max.-Flux-Residual
  Residual-Control   Outer-Iter.   Inner-Iter.     Column Row Layer    Max.-Head-Change    Column Row Layer    Max.-Flux-Residual            L2-New               L2-Old           Solver-Max-Delh
          3                26           0            26   76     1       0.2895135386E+01      27   76    1      -0.4063461995E+07      0.4063462751E+07      0.5837323222E+07      0.8440628379E+01
          4                26           0            26   76     1       0.2026594736E+01      27   76    1      -0.2821824794E+07      0.2821825798E+07      0.4063462751E+07      0.8440628379E+01
          5                26           0            26   76     1       0.1418616291E+01      27   76    1      -0.1952710722E+07      0.1952712109E+07      0.2821825798E+07      0.8440628379E+01
          6                26           0            26   76     1       0.9930313867E+00      27   76    1      -0.1344346540E+07      0.1344348504E+07      0.1952712109E+07      0.8440628379E+01
          7                26           0            26   76     1       0.6951219589E+00      27   76    1      -0.9184992913E+06      0.9185021262E+06      0.1344348504E+07      0.8440628379E+01
          8                26           0            26   76     1       0.4865853629E+00      27   76    1      -0.6204099818E+06      0.6204141438E+06      0.9185021262E+06      0.8440628379E+01
          9                26           0            26   76     1       0.3406097483E+00      27   76    1      -0.4117493107E+06      0.4117555504E+06      0.6204141438E+06      0.8440628379E+01
         10                26           0            26   76     1       0.2384268197E+00      27   76    1      -0.2656877461E+06      0.2656973858E+06      0.4117555504E+06      0.8440628379E+01
         11                26           0            26   76     1       0.1668987710E+00      27   76    1      -0.1634450949E+06      0.1634607330E+06      0.2656973858E+06      0.8440628379E+01
         12                26           0            26   76     1       0.1168291377E+00      27   76    1      -0.9187545694E+05      0.9190323795E+05      0.1634607330E+06      0.8440628379E+01
                                                   Max.-Head-Change                        Max.-Flux-Residual
  Residual-Control   Outer-Iter.   Inner-Iter.     Column Row Layer    Max.-Head-Change    Column Row Layer    Max.-Flux-Residual            L2-New               L2-Old           Solver-Max-Delh
         13                26           0            26   76     1       0.8178039498E-01      27   76    1      -0.4177681744E+05      0.4183782539E+05      0.9190323795E+05      0.8440628379E+01
         14                26           0            26   76     1       0.5724627551E-01      27   76    1      -0.6707822418E+04      0.7077646493E+04      0.4183782539E+05      0.8440628379E+01
          0                27           2            26   76     1       0.8440623092E+01      31   95    1      -0.7711576909E+03      0.2385218490E+04      0.7077646493E+04      0.8440623092E+01
          1                27           0            26   76     1       0.5908436064E+01      27   76    1      -0.8428887014E+07      0.8428887559E+07      0.2385218490E+04      0.8440623092E+01
          2                27           0            26   76     1       0.4135905174E+01      27   76    1      -0.5894607725E+07      0.5894608331E+07      0.8428887559E+07      0.8440623092E+01
          3                27           0            26   76     1       0.2895133573E+01      27   76    1      -0.4120745337E+07      0.4120746086E+07      0.5894608331E+07      0.8440623092E+01
          4                27           0            26   76     1       0.2026593466E+01      27   76    1      -0.2879106898E+07      0.2879107885E+07      0.4120746086E+07      0.8440623092E+01
          5                27           0            26   76     1       0.1418615402E+01      27   76    1      -0.2009991959E+07      0.2009993310E+07      0.2879107885E+07      0.8440623092E+01
          6                27           0            26   76     1       0.9930307647E+00      27   76    1      -0.1401627169E+07      0.1401629058E+07      0.2009993310E+07      0.8440623092E+01
          7                27           0            26   76     1       0.6951215234E+00      27   76    1      -0.9757794960E+06      0.9757821695E+06      0.1401629058E+07      0.8440623092E+01
                                                   Max.-Head-Change                        Max.-Flux-Residual
  Residual-Control   Outer-Iter.   Inner-Iter.     Column Row Layer    Max.-Head-Change    Column Row Layer    Max.-Flux-Residual            L2-New               L2-Old           Solver-Max-Delh
          8                27           0            26   76     1       0.4865850581E+00      27   76    1      -0.6776898890E+06      0.6776937054E+06      0.9757821695E+06      0.8440623092E+01
          9                27           0            26   76     1       0.3406095349E+00      27   76    1      -0.4690290097E+06      0.4690344951E+06      0.6776937054E+06      0.8440623092E+01
         10                27           0            26   76     1       0.2384266704E+00      27   76    1      -0.3229672993E+06      0.3229752393E+06      0.4690344951E+06      0.8440623092E+01
         11                27           0            26   76     1       0.1668986664E+00      27   76    1      -0.2207245461E+06      0.2207361394E+06      0.3229752393E+06      0.8440623092E+01
         12                27           0            26   76     1       0.1168290645E+00      27   76    1      -0.1491548367E+06      0.1491719689E+06      0.2207361394E+06      0.8440623092E+01
         13                27           0            26   76     1       0.8178034375E-01      27   76    1      -0.9905614725E+05      0.9908191870E+05      0.1491719689E+06      0.8440623092E+01
         14                27           0            26   76     1       0.5724623965E-01      27   76    1      -0.6398711723E+05      0.6402698124E+05      0.9908191870E+05      0.8440623092E+01
         15                27           0            26   76     1       0.4007236707E-01      27   76    1      -0.3943882214E+05      0.3950343908E+05      0.6402698124E+05      0.8440623092E+01
         16                27           0            26   76     1       0.2805065647E-01      27   76    1      -0.2225502836E+05      0.2236930531E+05      0.3950343908E+05      0.8440623092E+01
         17                27           0            26   76     1       0.1963545920E-01      27   76    1      -0.1022637904E+05      0.1047269513E+05      0.2236930531E+05      0.8440623092E+01
                                                   Max.-Head-Change                        Max.-Flux-Residual
  Residual-Control   Outer-Iter.   Inner-Iter.     Column Row Layer    Max.-Head-Change    Column Row Layer    Max.-Flux-Residual            L2-New               L2-Old           Solver-Max-Delh
         18                27           0            26   76     1       0.1374482120E-01      27   76    1      -0.1806327653E+04      0.2891475223E+04      0.1047269513E+05      0.8440623092E+01
          0                28           2            26   76     1       0.8440621822E+01      31   95    1      -0.7699646780E+03      0.2384832619E+04      0.2891475223E+04      0.8440621822E+01
          1                28           0            26   76     1       0.5908435175E+01      27   76    1      -0.8442641779E+07      0.8442642323E+07      0.2384832619E+04      0.8440621822E+01
          2                28           0            26   76     1       0.4135904552E+01      27   76    1      -0.5908361882E+07      0.5908362488E+07      0.8442642323E+07      0.8440621822E+01
          3                28           0            26   76     1       0.2895133137E+01      27   76    1      -0.4134499070E+07      0.4134499817E+07      0.5908362488E+07      0.8440621822E+01
          4                28           0            26   76     1       0.2026593162E+01      27   76    1      -0.2892860333E+07      0.2892861317E+07      0.4134499817E+07      0.8440621822E+01
          5                28           0            26   76     1       0.1418615189E+01      27   76    1      -0.2023745186E+07      0.2023746529E+07      0.2892861317E+07      0.8440621822E+01
          6                28           0            26   76     1       0.9930306153E+00      27   76    1      -0.1415380251E+07      0.1415382122E+07      0.2023746529E+07      0.8440621822E+01
          7                28           0            26   76     1       0.6951214189E+00      27   76    1      -0.9895324755E+06      0.9895351131E+06      0.1415382122E+07      0.8440621822E+01
          8                28           0            26   76     1       0.4865849849E+00      27   76    1      -0.6914427971E+06      0.6914465390E+06      0.9895351131E+06      0.8440621822E+01
                                                   Max.-Head-Change                        Max.-Flux-Residual
  Residual-Control   Outer-Iter.   Inner-Iter.     Column Row Layer    Max.-Head-Change    Column Row Layer    Max.-Flux-Residual            L2-New               L2-Old           Solver-Max-Delh
          9                28           0            26   76     1       0.3406094837E+00      27   76    1      -0.4827818678E+06      0.4827871987E+06      0.6914465390E+06      0.8440621822E+01
         10                28           0            26   76     1       0.2384266345E+00      27   76    1      -0.3367201224E+06      0.3367277404E+06      0.4827871987E+06      0.8440621822E+01
         11                28           0            26   76     1       0.1668986413E+00      27   76    1      -0.2344773447E+06      0.2344882611E+06      0.3367277404E+06      0.8440621822E+01
         12                28           0            26   76     1       0.1168290469E+00      27   76    1      -0.1629076182E+06      0.1629233083E+06      0.2344882611E+06      0.8440621822E+01
         13                28           0            26   76     1       0.8178033145E-01      27   76    1      -0.1128089167E+06      0.1128315527E+06      0.1629233083E+06      0.8440621822E+01
         14                28           0            26   76     1       0.5724623104E-01      27   76    1      -0.7773987828E+05      0.7777270131E+05      0.1128315527E+06      0.8440621822E+01
         15                28           0            26   76     1       0.4007236105E-01      27   76    1      -0.5319157730E+05      0.5323951645E+05      0.7777270131E+05      0.8440621822E+01
         16                28           0            26   76     1       0.2805065226E-01      27   76    1      -0.3600777940E+05      0.3607853790E+05      0.5323951645E+05      0.8440621822E+01
         17                28           0            26   76     1       0.1963545624E-01      27   76    1      -0.2397912720E+05      0.2408522840E+05      0.3607853790E+05      0.8440621822E+01
         18                28           0            26   76     1       0.1374481914E-01      27   76    1      -0.1555907380E+05      0.1572207831E+05      0.2408522840E+05      0.8440621822E+01
                                                   Max.-Head-Change                        Max.-Flux-Residual
  Residual-Control   Outer-Iter.   Inner-Iter.     Column Row Layer    Max.-Head-Change    Column Row Layer    Max.-Flux-Residual            L2-New               L2-Old           Solver-Max-Delh
         19                28           0            26   76     1       0.9621373232E-02      27   76    1      -0.9665037990E+04      0.9925292442E+04      0.1572207831E+05      0.8440621822E+01
         20                28           0            26   76     1       0.6734961148E-02      27   76    1      -0.5539213714E+04      0.5981723171E+04      0.9925292442E+04      0.8440621822E+01
         21                28           0            26   76     1       0.4714472723E-02      27   76    1      -0.2651137123E+04      0.3482299436E+04      0.5981723171E+04      0.8440621822E+01
          0                29           2            26   76     1       0.8440621387E+01      31   95    1      -0.7695561033E+03      0.2343920200E+04      0.3482299436E+04      0.8440621387E+01
          0                30           2            26   76     1       0.8439486062E+01      26   76    1       0.7677160645E+03      0.2123044283E+04      0.2343920200E+04      0.8439486062E+01
          1                30           0            26   76     1       0.5907640143E+01      29   77    1      -0.3933886813E+07      0.3933888040E+07      0.2123044283E+04      0.8439486062E+01
          2                30           0            26   76     1       0.4135348029E+01      29   77    1      -0.2564561403E+07      0.2564562688E+07      0.3933888040E+07      0.8439486062E+01
          3                30           0            26   76     1       0.2894743571E+01      29   77    1      -0.1606080362E+07      0.1606081993E+07      0.2564562688E+07      0.8439486062E+01
          4                30           0            26   76     1       0.2026320465E+01      29   77    1      -0.9351665431E+06      0.9351690344E+06      0.1606081993E+07      0.8439486062E+01
          5                30           0            26   76     1       0.1418424302E+01      29   77    1      -0.4655380977E+06      0.4655428533E+06      0.9351690344E+06      0.8439486062E+01
                                                   Max.-Head-Change                        Max.-Flux-Residual
  Residual-Control   Outer-Iter.   Inner-Iter.     Column Row Layer    Max.-Head-Change    Column Row Layer    Max.-Flux-Residual            L2-New               L2-Old           Solver-Max-Delh
          6                30           0            26   76     1       0.9928969942E+00      29   77    1      -0.1368036892E+06      0.1368195800E+06      0.4655428533E+06      0.8439486062E+01
          0                31           2            26   76     1       0.8439352536E+01      26   76    1       0.7677160645E+03      0.2122911786E+04      0.1368195800E+06      0.8439352536E+01
          1                31           0            26   76     1       0.5907546675E+01      29   77    1      -0.4470833651E+07      0.4470834907E+07      0.2122911786E+04      0.8439352536E+01
          2                31           0            26   76     1       0.4135282602E+01      29   77    1      -0.3101499566E+07      0.3101500796E+07      0.4470834907E+07      0.8439352536E+01
          3                31           0            26   76     1       0.2894697772E+01      29   77    1      -0.2143012453E+07      0.2143013833E+07      0.3101500796E+07      0.8439352536E+01
          4                31           0            26   76     1       0.2026288406E+01      29   77    1      -0.1472094381E+07      0.1472096113E+07      0.2143013833E+07      0.8439352536E+01
          5                31           0            26   76     1       0.1418401860E+01      29   77    1      -0.1002462959E+07      0.1002465305E+07      0.1472096113E+07      0.8439352536E+01
          6                31           0            26   76     1       0.9928812851E+00      29   77    1      -0.6737264666E+06      0.6737298161E+06      0.1002465305E+07      0.8439352536E+01
          7                31           0            26   76     1       0.6950168877E+00      29   77    1      -0.4436136196E+06      0.4436186019E+06      0.6737298161E+06      0.8439352536E+01
          8                31           0            26   76     1       0.4865118131E+00      29   77    1      -0.2825359495E+06      0.2825436921E+06      0.4436186019E+06      0.8439352536E+01
                                                   Max.-Head-Change                        Max.-Flux-Residual
  Residual-Control   Outer-Iter.   Inner-Iter.     Column Row Layer    Max.-Head-Change    Column Row Layer    Max.-Flux-Residual            L2-New               L2-Old           Solver-Max-Delh
          9                31           0            26   76     1       0.3405582634E+00      29   77    1      -0.1697822291E+06      0.1697950482E+06      0.2825436921E+06      0.8439352536E+01
         10                31           0            26   76     1       0.2383907803E+00      29   77    1      -0.9085494308E+05      0.9087883669E+05      0.1697950482E+06      0.8439352536E+01
         11                31           0            26   76     1       0.1668735434E+00      29   77    1      -0.3560599911E+05      0.3566684949E+05      0.9087883669E+05      0.8439352536E+01
          0                32           2            26   76     1       0.8439330096E+01      26   76    1       0.7677160645E+03      0.2122892966E+04      0.3566684949E+05      0.8439330096E+01
          1                32           0            26   76     1       0.5907530966E+01      29   77    1      -0.4561078025E+07      0.4561079289E+07      0.2122892966E+04      0.8439330096E+01
          2                32           0            26   76     1       0.4135271606E+01      29   77    1      -0.3191742483E+07      0.3191743709E+07      0.4561079289E+07      0.8439330096E+01
          3                32           0            26   76     1       0.2894690075E+01      29   77    1      -0.2233254349E+07      0.2233255703E+07      0.3191743709E+07      0.8439330096E+01
          4                32           0            26   76     1       0.2026283018E+01      29   77    1      -0.1562335563E+07      0.1562337224E+07      0.2233255703E+07      0.8439330096E+01
          5                32           0            26   76     1       0.1418398088E+01      29   77    1      -0.1092703640E+07      0.1092705823E+07      0.1562337224E+07      0.8439330096E+01
          6                32           0            26   76     1       0.9928786450E+00      29   77    1      -0.7639667978E+06      0.7639697815E+06      0.1092705823E+07      0.8439330096E+01
                                                   Max.-Head-Change                        Max.-Flux-Residual
  Residual-Control   Outer-Iter.   Inner-Iter.     Column Row Layer    Max.-Head-Change    Column Row Layer    Max.-Flux-Residual            L2-New               L2-Old           Solver-Max-Delh
          7                32           0            26   76     1       0.6950150396E+00      29   77    1      -0.5338537057E+06      0.5338578762E+06      0.7639697815E+06      0.8439330096E+01
          8                32           0            26   76     1       0.4865105195E+00      29   77    1      -0.3727758639E+06      0.3727817636E+06      0.5338578762E+06      0.8439330096E+01
          9                32           0            26   76     1       0.3405573578E+00      29   77    1      -0.2600220234E+06      0.2600304267E+06      0.3727817636E+06      0.8439330096E+01
         10                32           0            26   76     1       0.2383901464E+00      29   77    1      -0.1810946532E+06      0.1811066768E+06      0.2600304267E+06      0.8439330096E+01
         11                32           0            26   76     1       0.1668730997E+00      29   77    1      -0.1258456504E+06      0.1258629188E+06      0.1811066768E+06      0.8439330096E+01
         12                32           0            26   76     1       0.1168111678E+00      29   77    1      -0.8717142515E+05      0.8719632578E+05      0.1258629188E+06      0.8439330096E+01
         13                32           0            26   76     1       0.8176781604E-01      29   77    1      -0.6009950523E+05      0.6013559368E+05      0.8719632578E+05      0.8439330096E+01
         14                32           0            26   76     1       0.5723747026E-01      29   77    1      -0.4114917988E+05      0.4120184987E+05      0.6013559368E+05      0.8439330096E+01
         15                32           0            26   76     1       0.4006622850E-01      29   77    1      -0.2788396131E+05      0.2796161095E+05      0.4120184987E+05      0.8439330096E+01
         16                32           0            26   76     1       0.2804635947E-01      29   77    1      -0.1859831286E+05      0.1871451219E+05      0.2796161095E+05      0.8439330096E+01
                                                   Max.-Head-Change                        Max.-Flux-Residual
  Residual-Control   Outer-Iter.   Inner-Iter.     Column Row Layer    Max.-Head-Change    Column Row Layer    Max.-Flux-Residual            L2-New               L2-Old           Solver-Max-Delh
         17                32           0            26   76     1       0.1963245129E-01      29   77    1      -0.1209836120E+05      0.1227622239E+05      0.1871451219E+05      0.8439330096E+01
         18                32           0            26   76     1       0.1374271567E-01      29   77    1      -0.7548396169E+04      0.7830280294E+04      0.1227622239E+05      0.8439330096E+01
         19                32           0            26   76     1       0.9619900807E-02      29   77    1      -0.4363421219E+04      0.4834692914E+04      0.7830280294E+04      0.8439330096E+01
         20                32           0            26   76     1       0.6733930450E-02      29   77    1      -0.2133939044E+04      0.2981337723E+04      0.4834692914E+04      0.8439330096E+01
          0                33           2            26   76     1       0.8439329190E+01      26   76    1       0.7677160645E+03      0.2159458946E+04      0.2981337723E+04      0.8439329190E+01
          0                34           2            26   76     1       0.8438194444E+01      26   76    1       0.7677160645E+03      0.2081676362E+04      0.2159458946E+04      0.8438194444E+01
          1                34           0            26   76     1       0.5906736010E+01      26   76    1      -0.4377615570E+07      0.5263266115E+07      0.2081676362E+04      0.8438194444E+01
          2                34           0            26   76     1       0.4134715137E+01      26   76    1      -0.1842963704E+07      0.2052945762E+07      0.5263266115E+07      0.8438194444E+01
          3                34           0            26   76     1       0.2894300546E+01      26   76    1      -0.6882458865E+05      0.6885188576E+05      0.2052945762E+07      0.8438194444E+01
          0                35           2            26   76     1       0.8437805360E+01      26   76    1       0.7677160645E+03      0.2081551665E+04      0.6885188576E+05      0.8437805360E+01
                                                   Max.-Head-Change                        Max.-Flux-Residual
  Residual-Control   Outer-Iter.   Inner-Iter.     Column Row Layer    Max.-Head-Change    Column Row Layer    Max.-Flux-Residual            L2-New               L2-Old           Solver-Max-Delh
          1                35           0            26   76     1       0.5906463651E+01      26   76    1      -0.7275418916E+07      0.8959389134E+07      0.2081551665E+04      0.8437805360E+01
          2                35           0            26   76     1       0.4134524485E+01      26   76    1      -0.4740658825E+07      0.5725773399E+07      0.8959389134E+07      0.8437805360E+01
          3                35           0            26   76     1       0.2894167090E+01      26   76    1      -0.2966443942E+07      0.3469191060E+07      0.5725773399E+07      0.8437805360E+01
          4                35           0            26   76     1       0.2025916929E+01      26   76    1      -0.1724550949E+07      0.1905388045E+07      0.3469191060E+07      0.8437805360E+01
          5                35           0            26   76     1       0.1418141826E+01      26   76    1      -0.8552539967E+06      0.8633903273E+06      0.1905388045E+07      0.8437805360E+01
          6                35           0            26   76     1       0.9926992613E+00      26   76    1      -0.2467599229E+06      0.2467676199E+06      0.8633903273E+06      0.8437805360E+01
          0                36           2            26   76     1       0.8437671919E+01      26   76    1       0.7677160645E+03      0.2081528661E+04      0.2467676199E+06      0.8437671919E+01
          1                36           0            26   76     1       0.5906370243E+01      26   76    1      -0.8269378858E+07      0.1025485241E+08      0.2081528661E+04      0.8437671919E+01
          2                36           0            26   76     1       0.4134459100E+01      26   76    1      -0.5734581650E+07      0.6993049699E+07      0.1025485241E+08      0.8437671919E+01
          3                36           0            26   76     1       0.2894121320E+01      26   76    1      -0.3960340782E+07      0.4731995935E+07      0.6993049699E+07      0.8437671919E+01
                                                   Max.-Head-Change                        Max.-Flux-Residual
  Residual-Control   Outer-Iter.   Inner-Iter.     Column Row Layer    Max.-Head-Change    Column Row Layer    Max.-Flux-Residual            L2-New               L2-Old           Solver-Max-Delh
          4                36           0            26   76     1       0.2025884890E+01      26   76    1      -0.2718429596E+07      0.3155012044E+07      0.4731995935E+07      0.8437671919E+01
          5                36           0            26   76     1       0.1418119399E+01      26   76    1      -0.1849119909E+07      0.2060624316E+07      0.3155012044E+07      0.8437671919E+01
          6                36           0            26   76     1       0.9926835622E+00      26   76    1      -0.1240616920E+07      0.1311390869E+07      0.2060624316E+07      0.8437671919E+01
          7                36           0            26   76     1       0.6948784817E+00      26   76    1      -0.8146715881E+06      0.8191932204E+06      0.1311390869E+07      0.8437671919E+01
          8                36           0            26   76     1       0.4864149289E+00      26   76    1      -0.5165131701E+06      0.5165169134E+06      0.8191932204E+06      0.8437671919E+01
          9                36           0            26   76     1       0.3404904444E+00      26   76    1      -0.3078039025E+06      0.3078100970E+06      0.5165169134E+06      0.8437671919E+01
         10                36           0            26   76     1       0.2383433070E+00      26   76    1      -0.1617082122E+06      0.1617198961E+06      0.3078100970E+06      0.8437671919E+01
         11                36           0            26   76     1       0.1668403121E+00      26   76    1      -0.5944162005E+05      0.5947320718E+05      0.1617198961E+06      0.8437671919E+01
          0                37           2            26   76     1       0.8437649493E+01      26   76    1       0.7677160645E+03      0.2081525403E+04      0.5947320718E+05      0.8437649493E+01
          1                37           0            26   76     1       0.5906354544E+01      26   76    1      -0.8436434021E+07      0.1047966033E+08      0.2081525403E+04      0.8437649493E+01
                                                   Max.-Head-Change                        Max.-Flux-Residual
  Residual-Control   Outer-Iter.   Inner-Iter.     Column Row Layer    Max.-Head-Change    Column Row Layer    Max.-Flux-Residual            L2-New               L2-Old           Solver-Max-Delh
          2                37           0            26   76     1       0.4134448111E+01      26   76    1      -0.5901630575E+07      0.7206147265E+07      0.1047966033E+08      0.8437649493E+01
          3                37           0            26   76     1       0.2894113628E+01      26   76    1      -0.4127385339E+07      0.4944613785E+07      0.7206147265E+07      0.8437649493E+01
          4                37           0            26   76     1       0.2025879505E+01      26   76    1      -0.2885471097E+07      0.3366556243E+07      0.4944613785E+07      0.8437649493E+01
          5                37           0            26   76     1       0.1418115629E+01      26   76    1      -0.2016159269E+07      0.2269653269E+07      0.3366556243E+07      0.8437649493E+01
          6                37           0            26   76     1       0.9926809237E+00      26   76    1      -0.1407654782E+07      0.1514199548E+07      0.2269653269E+07      0.8437649493E+01
          7                37           0            26   76     1       0.6948766348E+00      26   76    1      -0.9817084010E+06      0.1005817575E+07      0.1514199548E+07      0.8437649493E+01
          8                37           0            26   76     1       0.4864136361E+00      26   76    1      -0.6835492488E+06      0.6835521114E+06      0.1005817575E+07      0.8437649493E+01
          9                37           0            26   76     1       0.3404895394E+00      26   76    1      -0.4748394673E+06      0.4748435274E+06      0.6835521114E+06      0.8437649493E+01
         10                37           0            26   76     1       0.2383426736E+00      26   76    1      -0.3287434172E+06      0.3287492249E+06      0.4748435274E+06      0.8437649493E+01
         11                37           0            26   76     1       0.1668398686E+00      26   76    1      -0.2264765732E+06      0.2264849489E+06      0.3287492249E+06      0.8437649493E+01
                                                   Max.-Head-Change                        Max.-Flux-Residual
  Residual-Control   Outer-Iter.   Inner-Iter.     Column Row Layer    Max.-Head-Change    Column Row Layer    Max.-Flux-Residual            L2-New               L2-Old           Solver-Max-Delh
         12                37           0            26   76     1       0.1167879061E+00      26   76    1      -0.1548899744E+06      0.1549021675E+06      0.2264849489E+06      0.8437649493E+01
         13                37           0            26   76     1       0.8175153285E-01      26   76    1      -0.1047794495E+06      0.1047974195E+06      0.1549021675E+06      0.8437649493E+01
         14                37           0            26   76     1       0.5722607202E-01      26   76    1      -0.6970212851E+05      0.6972908377E+05      0.1047974195E+06      0.8437649493E+01
         15                37           0            26   76     1       0.4005824973E-01      26   76    1      -0.4514802667E+05      0.4518957193E+05      0.6972908377E+05      0.8437649493E+01
         16                37           0            26   76     1       0.2804077434E-01      26   76    1      -0.2796016667E+05      0.2802713589E+05      0.4518957193E+05      0.8437649493E+01
         17                37           0            26   76     1       0.1962854170E-01      26   76    1      -0.1592867027E+05      0.1604585337E+05      0.2802713589E+05      0.8437649493E+01
         18                37           0            26   76     1       0.1373997896E-01      26   76    1      -0.7506625573E+04      0.7752065820E+04      0.1604585337E+05      0.8437649493E+01
         19                37           0            26   76     1       0.9617985106E-02      26   76    1      -0.1611195678E+04      0.2517897837E+04      0.7752065820E+04      0.8437649493E+01
          0                38           2            26   76     1       0.8437648200E+01      26   76    1       0.7677160645E+03      0.2081525220E+04      0.2517897837E+04      0.8437648200E+01
          1                38           0            26   76     1       0.5906353639E+01      26   76    1      -0.8446064418E+07      0.1049267539E+08      0.2081525220E+04      0.8437648200E+01
                                                   Max.-Head-Change                        Max.-Flux-Residual
  Residual-Control   Outer-Iter.   Inner-Iter.     Column Row Layer    Max.-Head-Change    Column Row Layer    Max.-Flux-Residual            L2-New               L2-Old           Solver-Max-Delh
          2                38           0            26   76     1       0.4134447477E+01      26   76    1      -0.5911260613E+07      0.7218432652E+07      0.1049267539E+08      0.8437648200E+01
          3                38           0            26   76     1       0.2894113185E+01      26   76    1      -0.4137015125E+07      0.4956873098E+07      0.7218432652E+07      0.8437648200E+01
          4                38           0            26   76     1       0.2025879195E+01      26   76    1      -0.2895100706E+07      0.3378758843E+07      0.4956873098E+07      0.8437648200E+01
          5                38           0            26   76     1       0.1418115412E+01      26   76    1      -0.2025788755E+07      0.2281728596E+07      0.3378758843E+07      0.8437648200E+01
          6                38           0            26   76     1       0.9926807716E+00      26   76    1      -0.1417284181E+07      0.1525979949E+07      0.2281728596E+07      0.8437648200E+01
          7                38           0            26   76     1       0.6948765283E+00      26   76    1      -0.9913377401E+06      0.1016898464E+07      0.1525979949E+07      0.8437648200E+01
          8                38           0            26   76     1       0.4864135615E+00      26   76    1      -0.6931785455E+06      0.6931813704E+06      0.1016898464E+07      0.8437648200E+01
          9                38           0            26   76     1       0.3404894873E+00      26   76    1      -0.4844687343E+06      0.4844727164E+06      0.6931813704E+06      0.8437648200E+01
         10                38           0            26   76     1       0.2383426370E+00      26   76    1      -0.3383726635E+06      0.3383783095E+06      0.4844727164E+06      0.8437648200E+01
         11                38           0            26   76     1       0.1668398431E+00      26   76    1      -0.2361058050E+06      0.2361138439E+06      0.3383783095E+06      0.8437648200E+01
                                                   Max.-Head-Change                        Max.-Flux-Residual
  Residual-Control   Outer-Iter.   Inner-Iter.     Column Row Layer    Max.-Head-Change    Column Row Layer    Max.-Flux-Residual            L2-New               L2-Old           Solver-Max-Delh
         12                38           0            26   76     1       0.1167878882E+00      26   76    1      -0.1645191960E+06      0.1645306822E+06      0.2361138439E+06      0.8437648200E+01
         13                38           0            26   76     1       0.8175152033E-01      26   76    1      -0.1144086640E+06      0.1144251312E+06      0.1645306822E+06      0.8437648200E+01
         14                38           0            26   76     1       0.5722606325E-01      26   76    1      -0.7933133807E+05      0.7935503578E+05      0.1144251312E+06      0.8437648200E+01
         15                38           0            26   76     1       0.4005824360E-01      26   76    1      -0.5477723275E+05      0.5481149878E+05      0.7935503578E+05      0.8437648200E+01
         16                38           0            26   76     1       0.2804077004E-01      26   76    1      -0.3758937031E+05      0.3763923803E+05      0.5481149878E+05      0.8437648200E+01
         17                38           0            26   76     1       0.1962853869E-01      26   76    1      -0.2555787220E+05      0.2563110895E+05      0.3763923803E+05      0.8437648200E+01
         18                38           0            26   76     1       0.1373997685E-01      26   76    1      -0.1713582630E+05      0.1724481580E+05      0.2563110895E+05      0.8437648200E+01
         19                38           0            26   76     1       0.9617983632E-02      26   76    1      -0.1124039557E+05      0.1140580450E+05      0.1724481580E+05      0.8437648200E+01
         20                38           0            26   76     1       0.6732588428E-02      26   76    1      -0.7113594764E+04      0.7372126202E+04      0.1140580450E+05      0.8437648200E+01
         21                38           0            26   76     1       0.4712811819E-02      26   76    1      -0.4224834559E+04      0.4646895077E+04      0.7372126202E+04      0.8437648200E+01
                                                   Max.-Head-Change                        Max.-Flux-Residual
  Residual-Control   Outer-Iter.   Inner-Iter.     Column Row Layer    Max.-Head-Change    Column Row Layer    Max.-Flux-Residual            L2-New               L2-Old           Solver-Max-Delh
         22                38           0            26   76     1       0.3298968217E-02      26   76    1      -0.2202702601E+04      0.2931873273E+04      0.4646895077E+04      0.8437648200E+01
          0                39           2            25   76     1       0.8435350107E+01      26   76    1      -0.7872103298E+03      0.2088871764E+04      0.2931873273E+04      0.8435350107E+01
          1                39           0            25   76     1       0.5904744975E+01      27   77    1      -0.6162983118E+07      0.6228912424E+07      0.2088871764E+04      0.8435350107E+01
          2                39           0            25   76     1       0.4133321412E+01      27   77    1      -0.4145424387E+07      0.4145425840E+07      0.6228912424E+07      0.8435350107E+01
          3                39           0            25   76     1       0.2893324939E+01      27   77    1      -0.2733139636E+07      0.2733140979E+07      0.4145425840E+07      0.8435350107E+01
          4                39           0            25   76     1       0.2025327423E+01      27   77    1      -0.1744581204E+07      0.1744582712E+07      0.2733140979E+07      0.8435350107E+01
          5                39           0            25   76     1       0.1417729172E+01      27   77    1      -0.1052610344E+07      0.1052612423E+07      0.1744582712E+07      0.8435350107E+01
          6                39           0            25   76     1       0.9924104034E+00      27   77    1      -0.5682405642E+06      0.5682441095E+06      0.1052612423E+07      0.8435350107E+01
          7                39           0            25   76     1       0.6946872705E+00      27   77    1      -0.2291865336E+06      0.2291950722E+06      0.5682441095E+06      0.8435350107E+01
          0                40           2            25   76     1       0.8435262069E+01      25   76    1       0.7677160645E+03      0.2066437900E+04      0.2291950722E+06      0.8435262069E+01
                                                   Max.-Head-Change                        Max.-Flux-Residual
  Residual-Control   Outer-Iter.   Inner-Iter.     Column Row Layer    Max.-Head-Change    Column Row Layer    Max.-Flux-Residual            L2-New               L2-Old           Solver-Max-Delh
          1                40           0            25   76     1       0.5904683348E+01      27   77    1      -0.6716723394E+07      0.6893066694E+07      0.2066437900E+04      0.8435262069E+01
          2                40           0            25   76     1       0.4133278273E+01      27   77    1      -0.4699230621E+07      0.4699232163E+07      0.6893066694E+07      0.8435262069E+01
          3                40           0            25   76     1       0.2893294742E+01      27   77    1      -0.3286936551E+07      0.3286937913E+07      0.4699232163E+07      0.8435262069E+01
          4                40           0            25   76     1       0.2025306285E+01      27   77    1      -0.2298371595E+07      0.2298372971E+07      0.3286937913E+07      0.8435262069E+01
          5                40           0            25   76     1       0.1417714375E+01      27   77    1      -0.1606396167E+07      0.1606397743E+07      0.2298372971E+07      0.8435262069E+01
          6                40           0            25   76     1       0.9924000458E+00      27   77    1      -0.1122023190E+07      0.1122025176E+07      0.1606397743E+07      0.8435262069E+01
          7                40           0            25   76     1       0.6946800202E+00      27   77    1      -0.7829669206E+06      0.7829695809E+06      0.1122025176E+07      0.8435262069E+01
          8                40           0            25   76     1       0.4862760059E+00      27   77    1      -0.5456298928E+06      0.5456335808E+06      0.7829695809E+06      0.8435262069E+01
          9                40           0            25   76     1       0.3403931983E+00      27   77    1      -0.3794951308E+06      0.3795003438E+06      0.5456335808E+06      0.8435262069E+01
         10                40           0            25   76     1       0.2382752348E+00      27   77    1      -0.2632013652E+06      0.2632088195E+06      0.3795003438E+06      0.8435262069E+01
                                                   Max.-Head-Change                        Max.-Flux-Residual
  Residual-Control   Outer-Iter.   Inner-Iter.     Column Row Layer    Max.-Head-Change    Column Row Layer    Max.-Flux-Residual            L2-New               L2-Old           Solver-Max-Delh
         11                40           0            25   76     1       0.1667926615E+00      27   77    1      -0.1817960079E+06      0.1818067573E+06      0.2632088195E+06      0.8435262069E+01
         12                40           0            25   76     1       0.1167548611E+00      27   77    1      -0.1248123945E+06      0.1248280219E+06      0.1818067573E+06      0.8435262069E+01
         13                40           0            25   76     1       0.8172840135E-01      27   77    1      -0.8492393247E+05      0.8494687838E+05      0.1248280219E+06      0.8435262069E+01
         14                40           0            25   76     1       0.5720987997E-01      27   77    1      -0.5700204211E+05      0.5703620900E+05      0.8494687838E+05      0.8435262069E+01
         15                40           0            25   76     1       0.4004691530E-01      27   77    1      -0.3745673517E+05      0.3750870169E+05      0.5703620900E+05      0.8435262069E+01
         16                40           0            25   76     1       0.2803284023E-01      27   77    1      -0.2377502838E+05      0.2385681085E+05      0.3750870169E+05      0.8435262069E+01
         17                40           0            25   76     1       0.1962298783E-01      27   77    1      -0.1419783763E+05      0.1433436333E+05      0.2385681085E+05      0.8435262069E+01
         18                40           0            25   76     1       0.1373609124E-01      27   77    1      -0.7493806095E+04      0.7749355321E+04      0.1433436333E+05      0.8435262069E+01
         19                40           0            25   76     1       0.9615263707E-02      27   77    1      -0.2800985023E+04      0.3426502412E+04      0.7749355321E+04      0.8435262069E+01
          0                41           2            25   76     1       0.8435260850E+01      25   76    1       0.7677160645E+03      0.2032160300E+04      0.3426502412E+04      0.8435260850E+01
                                                   Max.-Head-Change                        Max.-Flux-Residual
  Residual-Control   Outer-Iter.   Inner-Iter.     Column Row Layer    Max.-Head-Change    Column Row Layer    Max.-Flux-Residual            L2-New               L2-Old           Solver-Max-Delh
          1                41           0            25   76     1       0.5904682495E+01      26   77    1      -0.1558167396E+07      0.1558168724E+07      0.2032160300E+04      0.8435260850E+01
          0                42           2            25   76     1       0.8434512621E+01      25   76    1       0.7677160645E+03      0.1855016831E+04      0.1558168724E+07      0.8434512621E+01
          1                42           0            25   76     1       0.5904158734E+01      26   77    1      -0.7043922462E+07      0.7384452166E+07      0.1855016831E+04      0.8434512621E+01
          2                42           0            25   76     1       0.4132911043E+01      26   77    1      -0.4692625642E+07      0.4817019540E+07      0.7384452166E+07      0.8434512621E+01
          3                42           0            25   76     1       0.2893037681E+01      26   77    1      -0.3046848123E+07      0.3061327895E+07      0.4817019540E+07      0.8434512621E+01
          4                42           0            25   76     1       0.2025126342E+01      26   77    1      -0.1894867691E+07      0.1894868971E+07      0.3061327895E+07      0.8434512621E+01
          5                42           0            25   76     1       0.1417588415E+01      26   77    1      -0.1088512669E+07      0.1088514308E+07      0.1894868971E+07      0.8434512621E+01
          6                42           0            25   76     1       0.9923118739E+00      26   77    1      -0.5240794848E+06      0.5240824230E+06      0.1088514308E+07      0.8434512621E+01
          7                42           0            25   76     1       0.6946182999E+00      26   77    1      -0.1289837698E+06      0.1289951420E+06      0.5240824230E+06      0.8434512621E+01
          0                43           2            25   76     1       0.8434424611E+01      25   76    1       0.7677160645E+03      0.1852042846E+04      0.1289951420E+06      0.8434424611E+01
                                                   Max.-Head-Change                        Max.-Flux-Residual
  Residual-Control   Outer-Iter.   Inner-Iter.     Column Row Layer    Max.-Head-Change    Column Row Layer    Max.-Flux-Residual            L2-New               L2-Old           Solver-Max-Delh
          1                43           0            25   76     1       0.5904097127E+01      26   77    1      -0.7689307295E+07      0.8093735778E+07      0.1852042846E+04      0.8434424611E+01
          2                43           0            25   76     1       0.4132867919E+01      26   77    1      -0.5337985810E+07      0.5517892749E+07      0.8093735778E+07      0.8434424611E+01
          3                43           0            25   76     1       0.2893007494E+01      26   77    1      -0.3692191021E+07      0.3741798437E+07      0.5517892749E+07      0.8434424611E+01
          4                43           0            25   76     1       0.2025105211E+01      26   77    1      -0.2540198498E+07      0.2540776004E+07      0.3741798437E+07      0.8434424611E+01
          5                43           0            25   76     1       0.1417573624E+01      26   77    1      -0.1733835012E+07      0.1733836321E+07      0.2540776004E+07      0.8434424611E+01
          6                43           0            25   76     1       0.9923015196E+00      26   77    1      -0.1169395902E+07      0.1169397470E+07      0.1733836321E+07      0.8434424611E+01
          7                43           0            25   76     1       0.6946110519E+00      26   77    1      -0.7742960386E+06      0.7742981414E+06      0.1169397470E+07      0.8434424611E+01
          8                43           0            25   76     1       0.4862277281E+00      26   77    1      -0.4977298176E+06      0.4977328975E+06      0.7742981414E+06      0.8434424611E+01
          9                43           0            25   76     1       0.3403594038E+00      26   77    1      -0.3041352686E+06      0.3041401669E+06      0.4977328975E+06      0.8434424611E+01
         10                43           0            25   76     1       0.2382515786E+00      26   77    1      -0.1686199699E+06      0.1686286925E+06      0.3041401669E+06      0.8434424611E+01
                                                   Max.-Head-Change                        Max.-Flux-Residual
  Residual-Control   Outer-Iter.   Inner-Iter.     Column Row Layer    Max.-Head-Change    Column Row Layer    Max.-Flux-Residual            L2-New               L2-Old           Solver-Max-Delh
         11                43           0            25   76     1       0.1667761022E+00      26   77    1      -0.7375969511E+05      0.7377952917E+05      0.1686286925E+06      0.8434424611E+01
         12                43           0            25   76     1       0.1167432696E+00      26   77    1      -0.7357715969E+04      0.7553602773E+04      0.7377952917E+05      0.8434424611E+01
          0                44           2            25   76     1       0.8434409819E+01      25   76    1       0.7677160645E+03      0.1851605141E+04      0.7553602773E+04      0.8434409819E+01
          1                44           0            25   76     1       0.5904086773E+01      26   77    1      -0.7797777002E+07      0.8213058091E+07      0.1851605141E+04      0.8434409819E+01
          2                44           0            25   76     1       0.4132860671E+01      26   77    1      -0.5446451401E+07      0.5636059273E+07      0.8213058091E+07      0.8434409819E+01
          3                44           0            25   76     1       0.2893002420E+01      26   77    1      -0.3800653730E+07      0.3857423673E+07      0.5636059273E+07      0.8434409819E+01
          4                44           0            25   76     1       0.2025101660E+01      26   77    1      -0.2648659189E+07      0.2650788358E+07      0.3857423673E+07      0.8434409819E+01
          5                44           0            25   76     1       0.1417571138E+01      26   77    1      -0.1842294291E+07      0.1842295580E+07      0.2650788358E+07      0.8434409819E+01
          6                44           0            25   76     1       0.9922997794E+00      26   77    1      -0.1277854192E+07      0.1277855682E+07      0.1842295580E+07      0.8434409819E+01
          7                44           0            25   76     1       0.6946098338E+00      26   77    1      -0.8827536367E+06      0.8827555358E+06      0.1277855682E+07      0.8434409819E+01
                                                   Max.-Head-Change                        Max.-Flux-Residual
  Residual-Control   Outer-Iter.   Inner-Iter.     Column Row Layer    Max.-Head-Change    Column Row Layer    Max.-Flux-Residual            L2-New               L2-Old           Solver-Max-Delh
          8                44           0            25   76     1       0.4862268754E+00      26   77    1      -0.6061869311E+06      0.6061895139E+06      0.8827555358E+06      0.8434409819E+01
          9                44           0            25   76     1       0.3403588070E+00      26   77    1      -0.4125920429E+06      0.4125957066E+06      0.6061895139E+06      0.8434409819E+01
         10                44           0            25   76     1       0.2382511608E+00      26   77    1      -0.2770765066E+06      0.2770818670E+06      0.4125957066E+06      0.8434409819E+01
         11                44           0            25   76     1       0.1667758097E+00      26   77    1      -0.1822160657E+06      0.1822241457E+06      0.2770818670E+06      0.8434409819E+01
         12                44           0            25   76     1       0.1167430648E+00      26   77    1      -0.1158139702E+06      0.1158266278E+06      0.1822241457E+06      0.8434409819E+01
         13                44           0            25   76     1       0.8172014398E-01      26   77    1      -0.6933260802E+05      0.6935370475E+05      0.1158266278E+06      0.8434409819E+01
         14                44           0            25   76     1       0.5720409981E-01      26   77    1      -0.3679570598E+05      0.3683540089E+05      0.6935370475E+05      0.8434409819E+01
         15                44           0            25   76     1       0.4004286919E-01      26   77    1      -0.1401989989E+05      0.1412369899E+05      0.3683540089E+05      0.8434409819E+01
          0                45           2            25   76     1       0.8434404746E+01      25   76    1       0.7677160645E+03      0.1851458365E+04      0.1412369899E+05      0.8434404746E+01
          1                45           0            25   76     1       0.5904083222E+01      26   77    1      -0.7834982117E+07      0.8253992358E+07      0.1851458365E+04      0.8434404746E+01
                                                   Max.-Head-Change                        Max.-Flux-Residual
  Residual-Control   Outer-Iter.   Inner-Iter.     Column Row Layer    Max.-Head-Change    Column Row Layer    Max.-Flux-Residual            L2-New               L2-Old           Solver-Max-Delh
          2                45           0            25   76     1       0.4132858185E+01      26   77    1      -0.5483655106E+07      0.5676611253E+07      0.8253992358E+07      0.8434404746E+01
          3                45           0            25   76     1       0.2893000680E+01      26   77    1      -0.3837856448E+07      0.3897148588E+07      0.5676611253E+07      0.8434404746E+01
          4                45           0            25   76     1       0.2025100442E+01      26   77    1      -0.2685861216E+07      0.2688725930E+07      0.3897148588E+07      0.8434404746E+01
          5                45           0            25   76     1       0.1417570285E+01      26   77    1      -0.1879495833E+07      0.1879497117E+07      0.2688725930E+07      0.8434404746E+01
          6                45           0            25   76     1       0.9922991825E+00      26   77    1      -0.1315055396E+07      0.1315056863E+07      0.1879497117E+07      0.8434404746E+01
          7                45           0            25   76     1       0.6946094160E+00      26   77    1      -0.9199546030E+06      0.9199564449E+06      0.1315056863E+07      0.8434404746E+01
          8                45           0            25   76     1       0.4862265829E+00      26   77    1      -0.6433877313E+06      0.6433901844E+06      0.9199564449E+06      0.8434404746E+01
          9                45           0            25   76     1       0.3403586022E+00      26   77    1      -0.4497927269E+06      0.4497961074E+06      0.6433901844E+06      0.8434404746E+01
         10                45           0            25   76     1       0.2382510175E+00      26   77    1      -0.3142771093E+06      0.3142818553E+06      0.4497961074E+06      0.8434404746E+01
         11                45           0            25   76     1       0.1667757094E+00      26   77    1      -0.2194166114E+06      0.2194233422E+06      0.3142818553E+06      0.8434404746E+01
                                                   Max.-Head-Change                        Max.-Flux-Residual
  Residual-Control   Outer-Iter.   Inner-Iter.     Column Row Layer    Max.-Head-Change    Column Row Layer    Max.-Flux-Residual            L2-New               L2-Old           Solver-Max-Delh
         12                45           0            25   76     1       0.1167429946E+00      26   77    1      -0.1530144760E+06      0.1530240780E+06      0.2194233422E+06      0.8434404746E+01
         13                45           0            25   76     1       0.8172009483E-01      26   77    1      -0.1065330860E+06      0.1065468396E+06      0.1530240780E+06      0.8434404746E+01
         14                45           0            25   76     1       0.5720406540E-01      26   77    1      -0.7399616442E+05      0.7401593549E+05      0.1065468396E+06      0.8434404746E+01
         15                45           0            25   76     1       0.4004284510E-01      26   77    1      -0.5122034466E+05      0.5124888008E+05      0.7401593549E+05      0.8434404746E+01
         16                45           0            25   76     1       0.2802999109E-01      26   77    1      -0.3527728332E+05      0.3531868322E+05      0.5124888008E+05      0.8434404746E+01
         17                45           0            25   76     1       0.1962099343E-01      26   77    1      -0.2411714657E+05      0.2417764754E+05      0.3531868322E+05      0.8434404746E+01
         18                45           0            25   76     1       0.1373469517E-01      26   77    1      -0.1630505390E+05      0.1639439511E+05      0.2417764754E+05      0.8434404746E+01
         19                45           0            25   76     1       0.9614286454E-02      26   77    1      -0.1083659057E+05      0.1097054274E+05      0.1639439511E+05      0.8434404746E+01
         20                45           0            25   76     1       0.6730000403E-02      26   77    1      -0.7008667010E+04      0.7214037507E+04      0.1097054274E+05      0.8434404746E+01
         21                45           0            25   76     1       0.4711000202E-02      26   77    1      -0.4329120908E+04      0.4654254856E+04      0.7214037507E+04      0.8434404746E+01
                                                   Max.-Head-Change                        Max.-Flux-Residual
  Residual-Control   Outer-Iter.   Inner-Iter.     Column Row Layer    Max.-Head-Change    Column Row Layer    Max.-Flux-Residual            L2-New               L2-Old           Solver-Max-Delh
         22                45           0            25   76     1       0.3297700085E-02      26   77    1      -0.2453438837E+04      0.2989996727E+04      0.4654254856E+04      0.8434404746E+01
         23                45           0            25   76     1       0.2308390020E-02      26   77    1      -0.1140461493E+04      0.2054583979E+04      0.2989996727E+04      0.8434404746E+01
          0                46           2            25   76     1       0.8434404453E+01      25   76    1       0.7677160645E+03      0.1723262349E+04      0.2054583979E+04      0.8434404453E+01
          1                46           0            25   76     1       0.5904083017E+01      29   75    1      -0.2597451383E+07      0.2597452349E+07      0.1723262349E+04      0.8434404453E+01
          2                46           0            25   76     1       0.4132858041E+01      29   75    1      -0.1468483993E+07      0.1468485199E+07      0.2597452349E+07      0.8434404453E+01
          3                46           0            25   76     1       0.2893000580E+01      29   75    1      -0.6782402610E+06      0.6782424613E+06      0.1468485199E+07      0.8434404453E+01
          4                46           0            25   76     1       0.2025100371E+01      29   75    1      -0.1250860378E+06      0.1250972808E+06      0.6782424613E+06      0.8434404453E+01
          0                47           2            25   76     1       0.8434147880E+01      25   76    1       0.7677160645E+03      0.1710487413E+04      0.1250972808E+06      0.8434147880E+01
          1                47           0            25   76     1       0.5903903415E+01      29   75    1      -0.3500929360E+07      0.3572181788E+07      0.1710487413E+04      0.8434147880E+01
          2                47           0            25   76     1       0.4132732320E+01      29   75    1      -0.2371950801E+07      0.2371951784E+07      0.3572181788E+07      0.8434147880E+01
                                                   Max.-Head-Change                        Max.-Flux-Residual
  Residual-Control   Outer-Iter.   Inner-Iter.     Column Row Layer    Max.-Head-Change    Column Row Layer    Max.-Flux-Residual            L2-New               L2-Old           Solver-Max-Delh
          3                47           0            25   76     1       0.2892912575E+01      29   75    1      -0.1581699249E+07      0.1581700407E+07      0.2371951784E+07      0.8434147880E+01
          4                47           0            25   76     1       0.2025038768E+01      29   75    1      -0.1028539550E+07      0.1028541103E+07      0.1581700407E+07      0.8434147880E+01
          5                47           0            25   76     1       0.1417527113E+01      29   75    1      -0.6413357930E+06      0.6413381118E+06      0.1028541103E+07      0.8434147880E+01
          6                47           0            25   76     1       0.9922689625E+00      29   75    1      -0.3702971003E+06      0.3703009787E+06      0.6413381118E+06      0.8434147880E+01
          7                47           0            25   76     1       0.6945882619E+00      29   75    1      -0.1805719456E+06      0.1805797703E+06      0.3703009787E+06      0.8434147880E+01
          8                47           0            25   76     1       0.4862117751E+00      29   75    1      -0.4776528375E+05      0.4779464229E+05      0.1805797703E+06      0.8434147880E+01
          0                48           2            25   76     1       0.8434086281E+01      25   76    1       0.7677160645E+03      0.1708487765E+04      0.4779464229E+05      0.8434086281E+01
          1                48           0            25   76     1       0.5903860296E+01      29   75    1      -0.3717853272E+07      0.3904769165E+07      0.1708487765E+04      0.8434086281E+01
          2                48           0            25   76     1       0.4132702137E+01      29   75    1      -0.2588872031E+07      0.2588872999E+07      0.3904769165E+07      0.8434086281E+01
          3                48           0            25   76     1       0.2892891446E+01      29   75    1      -0.1798618601E+07      0.1798619686E+07      0.2588872999E+07      0.8434086281E+01
                                                   Max.-Head-Change                        Max.-Flux-Residual
  Residual-Control   Outer-Iter.   Inner-Iter.     Column Row Layer    Max.-Head-Change    Column Row Layer    Max.-Flux-Residual            L2-New               L2-Old           Solver-Max-Delh
          4                48           0            25   76     1       0.2025023978E+01      29   75    1      -0.1245457588E+07      0.1245458936E+07      0.1798619686E+07      0.8434086281E+01
          5                48           0            25   76     1       0.1417516760E+01      29   75    1      -0.8582529112E+06      0.8582547100E+06      0.1245458936E+07      0.8434086281E+01
          6                48           0            25   76     1       0.9922617154E+00      29   75    1      -0.5872135742E+06      0.5872160873E+06      0.8582547100E+06      0.8434086281E+01
          7                48           0            25   76     1       0.6945831890E+00      29   75    1      -0.3974879685E+06      0.3974915928E+06      0.5872160873E+06      0.8434086281E+01
          8                48           0            25   76     1       0.4862082240E+00      29   75    1      -0.2646809909E+06      0.2646863642E+06      0.3974915928E+06      0.8434086281E+01
          9                48           0            25   76     1       0.3403457510E+00      29   75    1      -0.1717165709E+06      0.1717247952E+06      0.2646863642E+06      0.8434086281E+01
         10                48           0            25   76     1       0.2382420216E+00      29   75    1      -0.1066417046E+06      0.1066548955E+06      0.1717247952E+06      0.8434086281E+01
         11                48           0            25   76     1       0.1667694123E+00      29   75    1      -0.6108941010E+05      0.6111238256E+05      0.1066548955E+06      0.8434086281E+01
         12                48           0            25   76     1       0.1167385866E+00      29   75    1      -0.2920285892E+05      0.2925082099E+05      0.6111238256E+05      0.8434086281E+01
         13                48           0            25   76     1       0.8171700925E-01      29   75    1      -0.6882300137E+04      0.7082891395E+04      0.2925082099E+05      0.8434086281E+01
                                                   Max.-Head-Change                        Max.-Flux-Residual
  Residual-Control   Outer-Iter.   Inner-Iter.     Column Row Layer    Max.-Head-Change    Column Row Layer    Max.-Flux-Residual            L2-New               L2-Old           Solver-Max-Delh
          0                49           2            25   76     1       0.8434075928E+01      25   76    1       0.7677160645E+03      0.1708180657E+04      0.7082891395E+04      0.8434075928E+01
          1                49           0            25   76     1       0.5903853049E+01      29   75    1      -0.3754311612E+07      0.3964888942E+07      0.1708180657E+04      0.8434075928E+01
          2                49           0            25   76     1       0.4132697064E+01      29   75    1      -0.2625329921E+07      0.2625330887E+07      0.3964888942E+07      0.8434075928E+01
          3                49           0            25   76     1       0.2892887895E+01      29   75    1      -0.1835076176E+07      0.1835077250E+07      0.2625330887E+07      0.8434075928E+01
          4                49           0            25   76     1       0.2025021492E+01      29   75    1      -0.1281914942E+07      0.1281916263E+07      0.1835077250E+07      0.8434075928E+01
          5                49           0            25   76     1       0.1417515020E+01      29   75    1      -0.8947101098E+06      0.8947118475E+06      0.1281916263E+07      0.8434075928E+01
          6                49           0            25   76     1       0.9922604974E+00      29   75    1      -0.6236706646E+06      0.6236730435E+06      0.8947118475E+06      0.8434075928E+01
          7                49           0            25   76     1       0.6945823364E+00      29   75    1      -0.4339449830E+06      0.4339483166E+06      0.6236730435E+06      0.8434075928E+01
          8                49           0            25   76     1       0.4862076272E+00      29   75    1      -0.3011379524E+06      0.3011426904E+06      0.4339483166E+06      0.8434075928E+01
          9                49           0            25   76     1       0.3403453332E+00      29   75    1      -0.2081734952E+06      0.2081802967E+06      0.3011426904E+06      0.8434075928E+01
                                                   Max.-Head-Change                        Max.-Flux-Residual
  Residual-Control   Outer-Iter.   Inner-Iter.     Column Row Layer    Max.-Head-Change    Column Row Layer    Max.-Flux-Residual            L2-New               L2-Old           Solver-Max-Delh
         10                49           0            25   76     1       0.2382417292E+00      29   75    1      -0.1430986029E+06      0.1431084541E+06      0.2081802967E+06      0.8434075928E+01
         11                49           0            25   76     1       0.1667692076E+00      29   75    1      -0.9754629021E+05      0.9756070408E+05      0.1431084541E+06      0.8434075928E+01
         12                49           0            25   76     1       0.1167384433E+00      29   75    1      -0.6565972628E+05      0.6568110481E+05      0.9756070408E+05      0.8434075928E+01
         13                49           0            25   76     1       0.8171690894E-01      29   75    1      -0.4333915858E+05      0.4337150928E+05      0.6568110481E+05      0.8434075928E+01
         14                49           0            25   76     1       0.5720183529E-01      29   75    1      -0.2771477453E+05      0.2776530455E+05      0.4337150928E+05      0.8434075928E+01
         15                49           0            25   76     1       0.4004128402E-01      29   75    1      -0.1677771228E+05      0.1686101720E+05      0.2776530455E+05      0.8434075928E+01
         16                49           0            25   76     1       0.2802889834E-01      29   75    1      -0.9121771976E+04      0.9274062689E+04      0.1686101720E+05      0.8434075928E+01
         17                49           0            25   76     1       0.1962022850E-01      29   75    1      -0.3762615390E+04      0.4118043082E+04      0.9274062689E+04      0.8434075928E+01
          0                50           2            25   76     1       0.8434073442E+01      25   76    1       0.7677160645E+03      0.1673553691E+04      0.4118043082E+04      0.8434073442E+01
          1                50           0            25   76     1       0.5903851309E+01      25   77    1      -0.1294463881E+07      0.1294465131E+07      0.1673553691E+04      0.8434073442E+01
                                                   Max.-Head-Change                        Max.-Flux-Residual
  Residual-Control   Outer-Iter.   Inner-Iter.     Column Row Layer    Max.-Head-Change    Column Row Layer    Max.-Flux-Residual            L2-New               L2-Old           Solver-Max-Delh
          0                51           2            25   76     1       0.8433325546E+01      25   76    1       0.7677160645E+03      0.1658714317E+04      0.1294465131E+07      0.8433325546E+01
          1                51           0            25   76     1       0.5903327781E+01      25   77    1      -0.7167705821E+07      0.1205517080E+08      0.1658714317E+04      0.8433325546E+01
          2                51           0            25   76     1       0.4132329377E+01      25   77    1      -0.4650351357E+07      0.6928937774E+07      0.1205517080E+08      0.8433325546E+01
          3                51           0            25   76     1       0.2892630514E+01      25   77    1      -0.2888343880E+07      0.3510710138E+07      0.6928937774E+07      0.8433325546E+01
          4                51           0            25   76     1       0.2024841326E+01      25   77    1      -0.1655007571E+07      0.1662329435E+07      0.3510710138E+07      0.8433325546E+01
          5                51           0            25   76     1       0.1417388904E+01      25   77    1      -0.7915371440E+06      0.7915388022E+06      0.1662329435E+07      0.8433325546E+01
          6                51           0            25   76     1       0.9921722157E+00      25   77    1      -0.1871101659E+06      0.1871161094E+06      0.7915388022E+06      0.8433325546E+01
          0                52           2            25   76     1       0.8433199871E+01      25   76    1       0.7677160645E+03      0.1658332295E+04      0.1871161094E+06      0.8433199871E+01
          1                52           0            25   76     1       0.5903239809E+01      25   77    1      -0.8154829792E+07      0.1408429965E+08      0.1658332295E+04      0.8433199871E+01
          2                52           0            25   76     1       0.4132267796E+01      25   77    1      -0.5637429014E+07      0.8925961723E+07      0.1408429965E+08      0.8433199871E+01
                                                   Max.-Head-Change                        Max.-Flux-Residual
  Residual-Control   Outer-Iter.   Inner-Iter.     Column Row Layer    Max.-Head-Change    Column Row Layer    Max.-Flux-Residual            L2-New               L2-Old           Solver-Max-Delh
          3                52           0            25   76     1       0.2892587408E+01      25   77    1      -0.3875389112E+07      0.5387518574E+07      0.8925961723E+07      0.8433199871E+01
          4                52           0            25   76     1       0.2024811151E+01      25   77    1      -0.2642030102E+07      0.3076418647E+07      0.5387518574E+07      0.8433199871E+01
          5                52           0            25   76     1       0.1417367782E+01      25   77    1      -0.1778712570E+07      0.1807038063E+07      0.3076418647E+07      0.8433199871E+01
          6                52           0            25   76     1       0.9921574302E+00      25   77    1      -0.1174321916E+07      0.1174323217E+07      0.1807038063E+07      0.8433199871E+01
          7                52           0            25   76     1       0.6945101893E+00      25   77    1      -0.7512233450E+06      0.7512250671E+06      0.1174323217E+07      0.8433199871E+01
          8                52           0            25   76     1       0.4861571242E+00      25   77    1      -0.4550583294E+06      0.4550609225E+06      0.7512250671E+06      0.8433199871E+01
          9                52           0            25   76     1       0.3403099812E+00      25   77    1      -0.2477447718E+06      0.2477493111E+06      0.4550609225E+06      0.8433199871E+01
         10                52           0            25   76     1       0.2382169828E+00      25   77    1      -0.1026262395E+06      0.1026369334E+06      0.2477493111E+06      0.8433199871E+01
          0                53           2            25   76     1       0.8433169697E+01      25   77    1      -0.1043736750E+04      0.1804980943E+04      0.1026369334E+06      0.8433169697E+01
          1                53           0            25   76     1       0.5903218687E+01      25   76    1      -0.6874418827E+07      0.1191349654E+08      0.1804980943E+04      0.8433169697E+01
                                                   Max.-Head-Change                        Max.-Flux-Residual
  Residual-Control   Outer-Iter.   Inner-Iter.     Column Row Layer    Max.-Head-Change    Column Row Layer    Max.-Flux-Residual            L2-New               L2-Old           Solver-Max-Delh
          2                53           0            25   76     1       0.4132253011E+01      25   76    1      -0.4340309526E+07      0.7349490911E+07      0.1191349654E+08      0.8433169697E+01
          3                53           0            25   76     1       0.2892577058E+01      25   76    1      -0.2566585435E+07      0.4167906319E+07      0.7349490911E+07      0.8433169697E+01
          4                53           0            25   76     1       0.2024803906E+01      25   76    1      -0.1325053263E+07      0.1979551753E+07      0.4167906319E+07      0.8433169697E+01
          5                53           0            25   76     1       0.1417362710E+01      25   76    1      -0.4560015680E+06      0.6334347369E+06      0.1979551753E+07      0.8433169697E+01
          0                54           2            25   76     1       0.8432930907E+01      25   77    1      -0.8771135059E+03      0.1713636301E+04      0.6334347369E+06      0.8432930907E+01
          1                54           0            25   76     1       0.5903051534E+01      25   76    1      -0.8293983855E+07      0.1447295188E+08      0.1713636301E+04      0.8432930907E+01
          2                54           0            25   76     1       0.4132136004E+01      25   76    1      -0.5759802857E+07      0.9904964053E+07      0.1447295188E+08      0.8432930907E+01
          3                54           0            25   76     1       0.2892495153E+01      25   76    1      -0.3986028569E+07      0.6712523832E+07      0.9904964053E+07      0.8432930907E+01
          4                54           0            25   76     1       0.2024746573E+01      25   76    1      -0.2744461254E+07      0.4485709837E+07      0.6712523832E+07      0.8432930907E+01
          5                54           0            25   76     1       0.1417322577E+01      25   76    1      -0.1875400734E+07      0.2939860241E+07      0.4485709837E+07      0.8432930907E+01
                                                   Max.-Head-Change                        Max.-Flux-Residual
  Residual-Control   Outer-Iter.   Inner-Iter.     Column Row Layer    Max.-Head-Change    Column Row Layer    Max.-Flux-Residual            L2-New               L2-Old           Solver-Max-Delh
          6                54           0            25   76     1       0.9921257869E+00      25   76    1      -0.1267076309E+07      0.1880398805E+07      0.2939860241E+07      0.8432930907E+01
          7                54           0            25   76     1       0.6944880390E+00      25   76    1      -0.8412580021E+06      0.1181463212E+07      0.1880398805E+07      0.8432930907E+01
          8                54           0            25   76     1       0.4861416190E+00      25   76    1      -0.5431894970E+06      0.7486394864E+06      0.1181463212E+07      0.8432930907E+01
          9                54           0            25   76     1       0.3402991275E+00      25   76    1      -0.3345050914E+06      0.4730170955E+06      0.7486394864E+06      0.8432930907E+01
         10                54           0            25   76     1       0.2382093852E+00      26   75    1      -0.2079281478E+06      0.2806074590E+06      0.4730170955E+06      0.8432930907E+01
         11                54           0            25   76     1       0.1667465668E+00      26   75    1      -0.1193706821E+06      0.1472306733E+06      0.2806074590E+06      0.8432930907E+01
         12                54           0            25   76     1       0.1167225948E+00      26   75    1      -0.5738065120E+05      0.5922345611E+05      0.1472306733E+06      0.8432930907E+01
         13                54           0            25   76     1       0.8170581495E-01      26   75    1      -0.1398772547E+05      0.1407600158E+05      0.5922345611E+05      0.8432930907E+01
          0                55           2            25   76     1       0.8432917142E+01      25   77    1      -0.8690416359E+03      0.1709501420E+04      0.1407600158E+05      0.8432917142E+01
          1                55           0            25   76     1       0.5903041899E+01      25   76    1      -0.8375819075E+07      0.1462052975E+08      0.1709501420E+04      0.8432917142E+01
                                                   Max.-Head-Change                        Max.-Flux-Residual
  Residual-Control   Outer-Iter.   Inner-Iter.     Column Row Layer    Max.-Head-Change    Column Row Layer    Max.-Flux-Residual            L2-New               L2-Old           Solver-Max-Delh
          2                55           0            25   76     1       0.4132129259E+01      25   76    1      -0.5841633945E+07      0.1005238614E+08      0.1462052975E+08      0.8432917142E+01
          3                55           0            25   76     1       0.2892490432E+01      25   76    1      -0.4067856762E+07      0.6859612822E+07      0.1005238614E+08      0.8432917142E+01
          4                55           0            25   76     1       0.2024743268E+01      25   76    1      -0.2826287422E+07      0.4632049473E+07      0.6859612822E+07      0.8432917142E+01
          5                55           0            25   76     1       0.1417320263E+01      25   76    1      -0.1957225484E+07      0.3084426238E+07      0.4632049473E+07      0.8432917142E+01
          6                55           0            25   76     1       0.9921241675E+00      25   76    1      -0.1348900066E+07      0.2020508603E+07      0.3084426238E+07      0.8432917142E+01
          7                55           0            25   76     1       0.6944869054E+00      25   76    1      -0.9230810643E+06      0.1309722282E+07      0.2020508603E+07      0.8432917142E+01
          8                55           0            25   76     1       0.4861408255E+00      25   76    1      -0.6250120727E+06      0.8608822716E+06      0.1309722282E+07      0.8432917142E+01
          9                55           0            25   76     1       0.3402985721E+00      25   76    1      -0.4163426758E+06      0.5810535197E+06      0.8608822716E+06      0.8432917142E+01
         10                55           0            25   76     1       0.2382089964E+00      26   75    1      -0.2788034501E+06      0.3882986059E+06      0.5810535197E+06      0.8432917142E+01
         11                55           0            25   76     1       0.1667462946E+00      26   75    1      -0.1902458482E+06      0.2538158433E+06      0.3882986059E+06      0.8432917142E+01
                                                   Max.-Head-Change                        Max.-Flux-Residual
  Residual-Control   Outer-Iter.   Inner-Iter.     Column Row Layer    Max.-Head-Change    Column Row Layer    Max.-Flux-Residual            L2-New               L2-Old           Solver-Max-Delh
         12                55           0            25   76     1       0.1167224043E+00      26   75    1      -0.1282557222E+06      0.1604693477E+06      0.2538158433E+06      0.8432917142E+01
         13                55           0            25   76     1       0.8170568158E-01      26   75    1      -0.8486272977E+05      0.9669408485E+05      0.1604693477E+06      0.8432917142E+01
         14                55           0            25   76     1       0.5719397614E-01      26   75    1      -0.5448768222E+05      0.5565467479E+05      0.9669408485E+05      0.8432917142E+01
         15                55           0            25   76     1       0.4003578261E-01      26   75    1      -0.3322517215E+05      0.3326243501E+05      0.5565467479E+05      0.8432917142E+01
         16                55           0            25   76     1       0.2802504735E-01      26   75    1      -0.1834142654E+05      0.1840883870E+05      0.3326243501E+05      0.8432917142E+01
         17                55           0            25   76     1       0.1961753281E-01      26   75    1      -0.7922810271E+04      0.8077645095E+04      0.1840883870E+05      0.8432917142E+01
          0                56           2            25   76     1       0.8432913837E+01      25   77    1      -0.8671213992E+03      0.1695318017E+04      0.8077645095E+04      0.8432913837E+01
          1                56           0            25   76     1       0.5903039585E+01      25   76    1      -0.8395467718E+07      0.1270136608E+08      0.1695318017E+04      0.8432913837E+01
          2                56           0            25   76     1       0.4132127639E+01      25   76    1      -0.5861281595E+07      0.8692545135E+07      0.1270136608E+08      0.8432913837E+01
          3                56           0            25   76     1       0.2892489298E+01      25   76    1      -0.4087503718E+07      0.5890591055E+07      0.8692545135E+07      0.8432913837E+01
                                                   Max.-Head-Change                        Max.-Flux-Residual
  Residual-Control   Outer-Iter.   Inner-Iter.     Column Row Layer    Max.-Head-Change    Column Row Layer    Max.-Flux-Residual            L2-New               L2-Old           Solver-Max-Delh
          4                56           0            25   76     1       0.2024742474E+01      25   76    1      -0.2845933891E+07      0.3935653950E+07      0.5890591055E+07      0.8432913837E+01
          5                56           0            25   76     1       0.1417319708E+01      25   76    1      -0.1976871613E+07      0.2577710381E+07      0.3935653950E+07      0.8432913837E+01
          6                56           0            25   76     1       0.9921237786E+00      25   76    1      -0.1368545956E+07      0.1645599059E+07      0.2577710381E+07      0.8432913837E+01
          7                56           0            25   76     1       0.6944866332E+00      25   76    1      -0.9427267879E+06      0.1028168364E+07      0.1645599059E+07      0.8432913837E+01
          8                56           0            25   76     1       0.4861406350E+00      25   76    1      -0.6446576795E+06      0.6529461590E+06      0.1028168364E+07      0.8432913837E+01
          9                56           0            25   76     1       0.3402984387E+00      25   76    1      -0.4359918861E+06      0.4359942054E+06      0.6529461590E+06      0.8432913837E+01
         10                56           0            25   76     1       0.2382089030E+00      25   76    1      -0.2899131397E+06      0.2899167540E+06      0.4359942054E+06      0.8432913837E+01
         11                56           0            25   76     1       0.1667462293E+00      25   76    1      -0.1876585251E+06      0.1876642618E+06      0.2899167540E+06      0.8432913837E+01
         12                56           0            25   76     1       0.1167223585E+00      25   76    1      -0.1160805442E+06      0.1160900038E+06      0.1876642618E+06      0.8432913837E+01
         13                56           0            25   76     1       0.8170564956E-01      25   76    1      -0.6597607999E+05      0.6599296149E+05      0.1160900038E+06      0.8432913837E+01
                                                   Max.-Head-Change                        Max.-Flux-Residual
  Residual-Control   Outer-Iter.   Inner-Iter.     Column Row Layer    Max.-Head-Change    Column Row Layer    Max.-Flux-Residual            L2-New               L2-Old           Solver-Max-Delh
         14                56           0            25   76     1       0.5719395372E-01      25   76    1      -0.3090301518E+05      0.3093940862E+05      0.6599296149E+05      0.8432913837E+01
         15                56           0            25   76     1       0.4003576692E-01      25   76    1      -0.6351899417E+04      0.6527909353E+04      0.3093940862E+05      0.8432913837E+01
          0                57           2            25   76     1       0.8432907092E+01      25   77    1      -0.8632111692E+03      0.1692258860E+04      0.6527909353E+04      0.8432907092E+01
          1                57           0            25   76     1       0.5903034864E+01      25   76    1      -0.8435567022E+07      0.1276482431E+08      0.1692258860E+04      0.8432907092E+01
          2                57           0            25   76     1       0.4132124334E+01      25   76    1      -0.5901378874E+07      0.8755940333E+07      0.1276482431E+08      0.8432907092E+01
          3                57           0            25   76     1       0.2892486985E+01      25   76    1      -0.4127599580E+07      0.5953851515E+07      0.8755940333E+07      0.8432907092E+01
          4                57           0            25   76     1       0.2024740855E+01      25   76    1      -0.2886028760E+07      0.3998609656E+07      0.5953851515E+07      0.8432907092E+01
          5                57           0            25   76     1       0.1417318574E+01      25   76    1      -0.2016965787E+07      0.2639936984E+07      0.3998609656E+07      0.8432907092E+01
          6                57           0            25   76     1       0.9921229851E+00      25   76    1      -0.1408639644E+07      0.1705959546E+07      0.2639936984E+07      0.8432907092E+01
          7                57           0            25   76     1       0.6944860777E+00      25   76    1      -0.9828201348E+06      0.1083407981E+07      0.1705959546E+07      0.8432907092E+01
                                                   Max.-Head-Change                        Max.-Flux-Residual
  Residual-Control   Outer-Iter.   Inner-Iter.     Column Row Layer    Max.-Head-Change    Column Row Layer    Max.-Flux-Residual            L2-New               L2-Old           Solver-Max-Delh
          8                57           0            25   76     1       0.4861402461E+00      25   76    1      -0.6847507880E+06      0.6996814531E+06      0.1083407981E+07      0.8432907092E+01
          9                57           0            25   76     1       0.3402981665E+00      25   76    1      -0.4760923488E+06      0.4760944540E+06      0.6996814531E+06      0.8432907092E+01
         10                57           0            25   76     1       0.2382087125E+00      25   76    1      -0.3300134857E+06      0.3300166293E+06      0.4760944540E+06      0.8432907092E+01
         11                57           0            25   76     1       0.1667460959E+00      25   76    1      -0.2277587894E+06      0.2277634659E+06      0.3300166293E+06      0.8432907092E+01
         12                57           0            25   76     1       0.1167222651E+00      25   76    1      -0.1561807513E+06      0.1561877045E+06      0.2277634659E+06      0.8432907092E+01
         13                57           0            25   76     1       0.8170558421E-01      25   76    1      -0.1060762470E+06      0.1060866286E+06      0.1561877045E+06      0.8432907092E+01
         14                57           0            25   76     1       0.5719390797E-01      25   76    1      -0.7100315420E+05      0.7101881871E+05      0.1060866286E+06      0.8432907092E+01
         15                57           0            25   76     1       0.4003573490E-01      25   76    1      -0.4645201881E+05      0.4647612922E+05      0.7101881871E+05      0.8432907092E+01
         16                57           0            25   76     1       0.2802501395E-01      25   76    1      -0.2926623864E+05      0.2930468406E+05      0.4647612922E+05      0.8432907092E+01
         17                57           0            25   76     1       0.1961750943E-01      25   76    1      -0.1723619973E+05      0.1730162767E+05      0.2930468406E+05      0.8432907092E+01
                                                   Max.-Head-Change                        Max.-Flux-Residual
  Residual-Control   Outer-Iter.   Inner-Iter.     Column Row Layer    Max.-Head-Change    Column Row Layer    Max.-Flux-Residual            L2-New               L2-Old           Solver-Max-Delh
         18                57           0            25   76     1       0.1373225637E-01      25   76    1      -0.8815176072E+04      0.8942744354E+04      0.1730162767E+05      0.8432907092E+01
         19                57           0            25   76     1       0.9612579295E-02      25   76    1      -0.2920461293E+04      0.3286089937E+04      0.8942744354E+04      0.8432907092E+01
          0                58           2            25   76     1       0.8432905473E+01      25   77    1      -0.8622765477E+03      0.1691528891E+04      0.3286089937E+04      0.8432905473E+01
          1                58           0            25   76     1       0.5903033730E+01      25   76    1      -0.8445194866E+07      0.1278006071E+08      0.1691528891E+04      0.8432905473E+01
          2                58           0            25   76     1       0.4132123541E+01      25   76    1      -0.5911006232E+07      0.8771161765E+07      0.1278006071E+08      0.8432905473E+01
          3                58           0            25   76     1       0.2892486429E+01      25   76    1      -0.4137226597E+07      0.5969041130E+07      0.8771161765E+07      0.8432905473E+01
          4                58           0            25   76     1       0.2024740466E+01      25   76    1      -0.2895655539E+07      0.4013727898E+07      0.5969041130E+07      0.8432905473E+01
          5                58           0            25   76     1       0.1417318302E+01      25   76    1      -0.2026592399E+07      0.2654886598E+07      0.4013727898E+07      0.8432905473E+01
          6                58           0            25   76     1       0.9921227946E+00      25   76    1      -0.1418266139E+07      0.1720485783E+07      0.2654886598E+07      0.8432905473E+01
          7                58           0            25   76     1       0.6944859444E+00      25   76    1      -0.9924465486E+06      0.1096804200E+07      0.1720485783E+07      0.8432905473E+01
                                                   Max.-Head-Change                        Max.-Flux-Residual
  Residual-Control   Outer-Iter.   Inner-Iter.     Column Row Layer    Max.-Head-Change    Column Row Layer    Max.-Flux-Residual            L2-New               L2-Old           Solver-Max-Delh
          8                58           0            25   76     1       0.4861401528E+00      25   76    1      -0.6943771445E+06      0.7111179800E+06      0.1096804200E+07      0.8432905473E+01
          9                58           0            25   76     1       0.3402981012E+00      25   76    1      -0.4857204711E+06      0.4857225302E+06      0.7111179800E+06      0.8432905473E+01
         10                58           0            25   76     1       0.2382086667E+00      25   76    1      -0.3396415799E+06      0.3396446273E+06      0.4857225302E+06      0.8432905473E+01
         11                58           0            25   76     1       0.1667460639E+00      25   76    1      -0.2373868640E+06      0.2373913396E+06      0.3396446273E+06      0.8432905473E+01
         12                58           0            25   76     1       0.1167222427E+00      25   76    1      -0.1658088122E+06      0.1658153445E+06      0.2373913396E+06      0.8432905473E+01
         13                58           0            25   76     1       0.8170556852E-01      25   76    1      -0.1157042983E+06      0.1157137904E+06      0.1658153445E+06      0.8432905473E+01
         14                58           0            25   76     1       0.5719389699E-01      25   76    1      -0.8063119876E+05      0.8064495526E+05      0.1157137904E+06      0.8432905473E+01
         15                58           0            25   76     1       0.4003572721E-01      25   76    1      -0.5608005867E+05      0.5609997585E+05      0.8064495526E+05      0.8432905473E+01
         16                58           0            25   76     1       0.2802500857E-01      25   76    1      -0.3889427520E+05      0.3892313091E+05      0.5609997585E+05      0.8432905473E+01
         17                58           0            25   76     1       0.1961750567E-01      25   76    1      -0.2686423398E+05      0.2690614134E+05      0.3892313091E+05      0.8432905473E+01
                                                   Max.-Head-Change                        Max.-Flux-Residual
  Residual-Control   Outer-Iter.   Inner-Iter.     Column Row Layer    Max.-Head-Change    Column Row Layer    Max.-Flux-Residual            L2-New               L2-Old           Solver-Max-Delh
         18                58           0            25   76     1       0.1373225373E-01      25   76    1      -0.1844320871E+05      0.1850434788E+05      0.2690614134E+05      0.8432905473E+01
         19                58           0            25   76     1       0.9612577449E-02      25   76    1      -0.1254849280E+05      0.1263833581E+05      0.1850434788E+05      0.8432905473E+01
         20                58           0            25   76     1       0.6728804099E-02      25   76    1      -0.8422192554E+04      0.8555637907E+04      0.1263833581E+05      0.8432905473E+01
         21                58           0            25   76     1       0.4710162789E-02      25   76    1      -0.5533782838E+04      0.5735006199E+04      0.8555637907E+04      0.8432905473E+01
         22                58           0            25   76     1       0.3297113896E-02      25   76    1      -0.3511896269E+04      0.3821297295E+04      0.5735006199E+04      0.8432905473E+01
         23                58           0            25   76     1       0.2307979688E-02      25   76    1      -0.2096575792E+04      0.2581758432E+04      0.3821297295E+04      0.8432905473E+01
         24                58           0            25   76     1       0.1615585754E-02      25   76    1      -0.1105851522E+04      0.1869069005E+04      0.2581758432E+04      0.8432905473E+01
          0                59           2            25   75     1       0.8422449237E+01      25   77    1      -0.8618535991E+03      0.1562371606E+04      0.1869069005E+04      0.8422449237E+01
          1                59           0            25   75     1       0.5895714366E+01      25   75    1      -0.7901033963E+07      0.9594373480E+07      0.1562371606E+04      0.8422449237E+01
          2                59           0            25   75     1       0.4126999986E+01      25   75    1      -0.5368364849E+07      0.6482339819E+07      0.9594373480E+07      0.8422449237E+01
                                                   Max.-Head-Change                        Max.-Flux-Residual
  Residual-Control   Outer-Iter.   Inner-Iter.     Column Row Layer    Max.-Head-Change    Column Row Layer    Max.-Flux-Residual            L2-New               L2-Old           Solver-Max-Delh
          3                59           0            25   75     1       0.2888899941E+01      25   75    1      -0.3595675558E+07      0.4304698846E+07      0.6482339819E+07      0.8422449237E+01
          4                59           0            25   75     1       0.2022229924E+01      25   75    1      -0.2354880814E+07      0.2781435168E+07      0.4304698846E+07      0.8422449237E+01
          5                59           0            25   75     1       0.1415560923E+01      25   75    1      -0.1486367500E+07      0.1717026361E+07      0.2781435168E+07      0.8422449237E+01
          6                59           0            25   75     1       0.9908926291E+00      25   75    1      -0.8784292567E+06      0.9759214659E+06      0.1717026361E+07      0.8422449237E+01
          7                59           0            25   75     1       0.6936248285E+00      25   75    1      -0.4528828161E+06      0.4687984614E+06      0.9759214659E+06      0.8422449237E+01
          8                59           0            25   75     1       0.4855373717E+00      25   75    1      -0.1550053707E+06      0.1550105142E+06      0.4687984614E+06      0.8422449237E+01
          0                60           2            25   75     1       0.8422353052E+01      25   77    1      -0.8146505805E+03      0.1517126474E+04      0.1550105142E+06      0.8422353052E+01
          1                60           0            25   75     1       0.5895647036E+01      25   75    1      -0.8387649706E+07      0.1019235927E+08      0.1517126474E+04      0.8422353052E+01
          2                60           0            25   75     1       0.4126952855E+01      25   75    1      -0.5854951699E+07      0.7080200186E+07      0.1019235927E+08      0.8422353052E+01
          3                60           0            25   75     1       0.2888866949E+01      25   75    1      -0.4082242179E+07      0.4902329245E+07      0.7080200186E+07      0.8422353052E+01
                                                   Max.-Head-Change                        Max.-Flux-Residual
  Residual-Control   Outer-Iter.   Inner-Iter.     Column Row Layer    Max.-Head-Change    Column Row Layer    Max.-Flux-Residual            L2-New               L2-Old           Solver-Max-Delh
          4                60           0            25   75     1       0.2022206830E+01      25   75    1      -0.2841433272E+07      0.3378570468E+07      0.4902329245E+07      0.8422353052E+01
          5                60           0            25   75     1       0.1415544757E+01      25   75    1      -0.1972910043E+07      0.2312967620E+07      0.3378570468E+07      0.8422353052E+01
          6                60           0            25   75     1       0.9908813130E+00      25   75    1      -0.1364964859E+07      0.1568571261E+07      0.2312967620E+07      0.8422353052E+01
          7                60           0            25   75     1       0.6936169073E+00      25   75    1      -0.9394135593E+06      0.1049875999E+07      0.1568571261E+07      0.8422353052E+01
          8                60           0            25   75     1       0.4855318268E+00      25   75    1      -0.6415327124E+06      0.6906931319E+06      0.1049875999E+07      0.8422353052E+01
          9                60           0            25   75     1       0.3398722730E+00      25   75    1      -0.4330186015E+06      0.4460244839E+06      0.6906931319E+06      0.8422353052E+01
         10                60           0            25   75     1       0.2379105870E+00      25   75    1      -0.2870599407E+06      0.2870740598E+06      0.4460244839E+06      0.8422353052E+01
         11                60           0            25   75     1       0.1665374081E+00      25   75    1      -0.1848894750E+06      0.1848937492E+06      0.2870740598E+06      0.8422353052E+01
         12                60           0            25   75     1       0.1165761837E+00      25   75    1      -0.1133704418E+06      0.1133775975E+06      0.1848937492E+06      0.8422353052E+01
         13                60           0            25   75     1       0.8160332719E-01      25   75    1      -0.6330726222E+05      0.6332032991E+05      0.1133775975E+06      0.8422353052E+01
                                                   Max.-Head-Change                        Max.-Flux-Residual
  Residual-Control   Outer-Iter.   Inner-Iter.     Column Row Layer    Max.-Head-Change    Column Row Layer    Max.-Flux-Residual            L2-New               L2-Old           Solver-Max-Delh
         14                60           0            25   75     1       0.5712232806E-01      25   75    1      -0.2826310715E+05      0.2829278744E+05      0.6332032991E+05      0.8422353052E+01
         15                60           0            25   75     1       0.3998562896E-01      25   75    1      -0.3732233317E+04      0.3952913384E+04      0.2829278744E+05      0.8422353052E+01
          0                61           2            25   75     1       0.8422345131E+01      25   77    1      -0.8109760764E+03      0.1513656333E+04      0.3952913384E+04      0.8422345131E+01
          1                61           0            25   75     1       0.5895641491E+01      25   75    1      -0.8427724638E+07      0.1024160641E+08      0.1513656333E+04      0.8422345131E+01
          2                61           0            25   75     1       0.4126948974E+01      25   75    1      -0.5895024252E+07      0.7129437891E+07      0.1024160641E+08      0.8422345131E+01
          3                61           0            25   75     1       0.2888864232E+01      25   75    1      -0.4122313065E+07      0.4951550836E+07      0.7129437891E+07      0.8422345131E+01
          4                61           0            25   75     1       0.2022204928E+01      25   75    1      -0.2881502992E+07      0.3427760580E+07      0.4951550836E+07      0.8422345131E+01
          5                61           0            25   75     1       0.1415543426E+01      25   75    1      -0.2012978947E+07      0.2362092097E+07      0.3427760580E+07      0.8422345131E+01
          6                61           0            25   75     1       0.9908803811E+00      25   75    1      -0.1405033191E+07      0.1617553457E+07      0.2362092097E+07      0.8422345131E+01
          7                61           0            25   75     1       0.6936162549E+00      25   75    1      -0.9794814909E+06      0.1098538892E+07      0.1617553457E+07      0.8422345131E+01
                                                   Max.-Head-Change                        Max.-Flux-Residual
  Residual-Control   Outer-Iter.   Inner-Iter.     Column Row Layer    Max.-Head-Change    Column Row Layer    Max.-Flux-Residual            L2-New               L2-Old           Solver-Max-Delh
          8                61           0            25   75     1       0.4855313702E+00      25   75    1      -0.6816003640E+06      0.7386104990E+06      0.1098538892E+07      0.8422345131E+01
          9                61           0            25   75     1       0.3398719533E+00      25   75    1      -0.4730860570E+06      0.4921230648E+06      0.7386104990E+06      0.8422345131E+01
         10                61           0            25   75     1       0.2379103633E+00      25   75    1      -0.3271272589E+06      0.3286186422E+06      0.4921230648E+06      0.8422345131E+01
         11                61           0            25   75     1       0.1665372515E+00      25   75    1      -0.2249566971E+06      0.2249601628E+06      0.3286186422E+06      0.8422345131E+01
         12                61           0            25   75     1       0.1165760740E+00      25   75    1      -0.1534375966E+06      0.1534428059E+06      0.2249601628E+06      0.8422345131E+01
         13                61           0            25   75     1       0.8160325044E-01      25   75    1      -0.1033743700E+06      0.1033822485E+06      0.1534428059E+06      0.8422345131E+01
         14                61           0            25   75     1       0.5712227434E-01      25   75    1      -0.6833018196E+05      0.6834226555E+05      0.1033822485E+06      0.8422345131E+01
         15                61           0            25   75     1       0.3998559135E-01      25   75    1      -0.4379928506E+05      0.4381832170E+05      0.6834226555E+05      0.8422345131E+01
         16                61           0            25   75     1       0.2798991347E-01      25   75    1      -0.2662767433E+05      0.2665919772E+05      0.4381832170E+05      0.8422345131E+01
         17                61           0            25   75     1       0.1959293910E-01      25   75    1      -0.1460755526E+05      0.1466522751E+05      0.2665919772E+05      0.8422345131E+01
                                                   Max.-Head-Change                        Max.-Flux-Residual
  Residual-Control   Outer-Iter.   Inner-Iter.     Column Row Layer    Max.-Head-Change    Column Row Layer    Max.-Flux-Residual            L2-New               L2-Old           Solver-Max-Delh
         18                61           0            25   75     1       0.1371505713E-01      25   75    1      -0.6193476093E+04      0.6328772501E+04      0.1466522751E+05      0.8422345131E+01
          0                62           2            27   75     1       0.6020508076E+01      25   77    1      -0.8097213934E+03      0.1338144787E+04      0.6328772501E+04      0.6020508076E+01
          1                62           0            27   75     1       0.4214355581E+01      27   75    1      -0.5829092192E+07      0.5829093435E+07      0.1338144787E+04      0.6020508076E+01
          2                62           0            27   75     1       0.2950048857E+01      27   75    1      -0.4019503410E+07      0.4019504288E+07      0.5829093435E+07      0.6020508076E+01
          3                62           0            27   75     1       0.2065034164E+01      27   75    1      -0.2752881306E+07      0.2752881989E+07      0.4019504288E+07      0.6020508076E+01
          4                62           0            27   75     1       0.1445523890E+01      27   75    1      -0.1866289958E+07      0.1866290578E+07      0.2752881989E+07      0.6020508076E+01
          5                62           0            27   75     1       0.1011866706E+01      27   75    1      -0.1245697640E+07      0.1245698323E+07      0.1866290578E+07      0.6020508076E+01
          6                62           0            27   75     1       0.7083066822E+00      27   75    1      -0.8112936158E+06      0.8112945161E+06      0.1245698323E+07      0.6020508076E+01
          7                62           0            27   75     1       0.4958146691E+00      27   75    1      -0.5072159934E+06      0.5072173562E+06      0.8112945161E+06      0.6020508076E+01
          8                62           0            27   75     1       0.3470702625E+00      27   75    1      -0.2943642043E+06      0.2943665324E+06      0.5072173562E+06      0.6020508076E+01
                                                   Max.-Head-Change                        Max.-Flux-Residual
  Residual-Control   Outer-Iter.   Inner-Iter.     Column Row Layer    Max.-Head-Change    Column Row Layer    Max.-Flux-Residual            L2-New               L2-Old           Solver-Max-Delh
          9                62           0            27   75     1       0.2429491796E+00      27   75    1      -0.1453692005E+06      0.1453739580E+06      0.2943665324E+06      0.6020508076E+01
         10                62           0            27   75     1       0.1700644228E+00      27   75    1      -0.4107331018E+05      0.4109037503E+05      0.1453739580E+06      0.6020508076E+01
          0                63           2            27   75     1       0.6020482909E+01      25   77    1      -0.7879902870E+03      0.1313255634E+04      0.4109037503E+05      0.6020482909E+01
          1                63           0            27   75     1       0.4214337964E+01      27   75    1      -0.5999462745E+07      0.5999464026E+07      0.1313255634E+04      0.6020482909E+01
          2                63           0            27   75     1       0.2950036525E+01      27   75    1      -0.4189867284E+07      0.4189868195E+07      0.5999464026E+07      0.6020482909E+01
          3                63           0            27   75     1       0.2065025532E+01      27   75    1      -0.2923240504E+07      0.2923241211E+07      0.4189868195E+07      0.6020482909E+01
          4                63           0            27   75     1       0.1445517848E+01      27   75    1      -0.2036645883E+07      0.2036646510E+07      0.2923241211E+07      0.6020482909E+01
          5                63           0            27   75     1       0.1011862476E+01      27   75    1      -0.1416051273E+07      0.1416051926E+07      0.2036646510E+07      0.6020482909E+01
          6                63           0            27   75     1       0.7083037213E+00      27   75    1      -0.9816456447E+06      0.9816464320E+06      0.1416051926E+07      0.6020482909E+01
          7                63           0            27   75     1       0.4958125965E+00      27   75    1      -0.6775668994E+06      0.6775679501E+06      0.9816464320E+06      0.6020482909E+01
                                                   Max.-Head-Change                        Max.-Flux-Residual
  Residual-Control   Outer-Iter.   Inner-Iter.     Column Row Layer    Max.-Head-Change    Column Row Layer    Max.-Flux-Residual            L2-New               L2-Old           Solver-Max-Delh
          8                63           0            27   75     1       0.3470688116E+00      27   75    1      -0.4647143242E+06      0.4647158110E+06      0.6775679501E+06      0.6020482909E+01
          9                63           0            27   75     1       0.2429481640E+00      27   75    1      -0.3157187701E+06      0.3157209454E+06      0.4647158110E+06      0.6020482909E+01
         10                63           0            27   75     1       0.1700637119E+00      27   75    1      -0.2114224945E+06      0.2114257531E+06      0.3157209454E+06      0.6020482909E+01
         11                63           0            27   75     1       0.1190445963E+00      27   75    1      -0.1384154020E+06      0.1384204082E+06      0.2114257531E+06      0.6020482909E+01
         12                63           0            27   75     1       0.8333121600E-01      27   75    1      -0.8731058474E+05      0.8731856680E+05      0.1384204082E+06      0.6020482909E+01
         13                63           0            27   75     1       0.5833185020E-01      27   75    1      -0.5153728509E+05      0.5155087233E+05      0.8731856680E+05      0.6020482909E+01
         14                63           0            27   75     1       0.4083229445E-01      27   75    1      -0.2649601096E+05      0.2652253014E+05      0.5155087233E+05      0.6020482909E+01
         15                63           0            27   75     1       0.2858260563E-01      27   75    1      -0.8967136605E+04      0.9045416353E+04      0.2652253014E+05      0.6020482909E+01
          0                64           2            27   75     1       0.6020478658E+01      25   77    1      -0.7844359227E+03      0.1309204933E+04      0.9045416353E+04      0.6020478658E+01
          1                64           0            27   75     1       0.4214334988E+01      27   75    1      -0.6028096912E+07      0.6028098199E+07      0.1309204933E+04      0.6020478658E+01
                                                   Max.-Head-Change                        Max.-Flux-Residual
  Residual-Control   Outer-Iter.   Inner-Iter.     Column Row Layer    Max.-Head-Change    Column Row Layer    Max.-Flux-Residual            L2-New               L2-Old           Solver-Max-Delh
          2                64           0            27   75     1       0.2950034442E+01      27   75    1      -0.4218500335E+07      0.4218501252E+07      0.6028098199E+07      0.6020478658E+01
          3                64           0            27   75     1       0.2065024074E+01      27   75    1      -0.2951872773E+07      0.2951873485E+07      0.4218501252E+07      0.6020478658E+01
          4                64           0            27   75     1       0.1445516827E+01      27   75    1      -0.2065277606E+07      0.2065278234E+07      0.2951873485E+07      0.6020478658E+01
          5                64           0            27   75     1       0.1011861762E+01      27   75    1      -0.1444682613E+07      0.1444683262E+07      0.2065278234E+07      0.6020478658E+01
          6                64           0            27   75     1       0.7083032212E+00      27   75    1      -0.1010276716E+07      0.1010277489E+07      0.1444683262E+07      0.6020478658E+01
          7                64           0            27   75     1       0.4958122464E+00      27   75    1      -0.7061977832E+06      0.7061987979E+06      0.1010277489E+07      0.6020478658E+01
          8                64           0            27   75     1       0.3470685666E+00      27   75    1      -0.4933450766E+06      0.4933464815E+06      0.7061987979E+06      0.6020478658E+01
          9                64           0            27   75     1       0.2429479925E+00      27   75    1      -0.3443494305E+06      0.3443514261E+06      0.4933464815E+06      0.6020478658E+01
         10                64           0            27   75     1       0.1700635918E+00      27   75    1      -0.2400530906E+06      0.2400559572E+06      0.3443514261E+06      0.6020478658E+01
         11                64           0            27   75     1       0.1190445123E+00      27   75    1      -0.1670459530E+06      0.1670500912E+06      0.2400559572E+06      0.6020478658E+01
                                                   Max.-Head-Change                        Max.-Flux-Residual
  Residual-Control   Outer-Iter.   Inner-Iter.     Column Row Layer    Max.-Head-Change    Column Row Layer    Max.-Flux-Residual            L2-New               L2-Old           Solver-Max-Delh
         12                64           0            27   75     1       0.8333115716E-01      27   75    1      -0.1159411042E+06      0.1159470957E+06      0.1670500912E+06      0.6020478658E+01
         13                64           0            27   75     1       0.5833180902E-01      27   75    1      -0.8016778249E+05      0.8017648447E+05      0.1159470957E+06      0.6020478658E+01
         14                64           0            27   75     1       0.4083226562E-01      27   75    1      -0.5512649290E+05      0.5513919000E+05      0.8017648447E+05      0.6020478658E+01
         15                64           0            27   75     1       0.2858258544E-01      27   75    1      -0.3759760773E+05      0.3761626993E+05      0.5513919000E+05      0.6020478658E+01
         16                64           0            27   75     1       0.2000780947E-01      27   75    1      -0.2532739677E+05      0.2535514431E+05      0.3761626993E+05      0.6020478658E+01
         17                64           0            27   75     1       0.1400546639E-01      27   75    1      -0.1673825338E+05      0.1678026732E+05      0.2535514431E+05      0.6020478658E+01
         18                64           0            27   75     1       0.9803826307E-02      27   75    1      -0.1072585515E+05      0.1079136679E+05      0.1678026732E+05      0.6020478658E+01
         19                64           0            27   75     1       0.6862678298E-02      27   75    1      -0.6517177446E+04      0.6624516224E+04      0.1079136679E+05      0.6020478658E+01
         20                64           0            27   75     1       0.4803874727E-02      27   75    1      -0.3571103593E+04      0.3763521149E+04      0.6624516224E+04      0.6020478658E+01
         21                64           0            27   75     1       0.3362712251E-02      27   75    1      -0.1508852170E+04      0.1920530499E+04      0.3763521149E+04      0.6020478658E+01
                                                   Max.-Head-Change                        Max.-Flux-Residual
  Residual-Control   Outer-Iter.   Inner-Iter.     Column Row Layer    Max.-Head-Change    Column Row Layer    Max.-Flux-Residual            L2-New               L2-Old           Solver-Max-Delh
          0                65           2            28   77     1       0.3649241785E+01      25   77    1      -0.7840196372E+03      0.1190130161E+04      0.1920530499E+04      0.3649241785E+01
          0                66           2            28   77     1       0.3648760097E+01      28   77    1       0.3320478713E+03      0.4966743687E+03      0.1190130161E+04      0.3648760097E+01
          0                67           2            28   77     1       0.3648221048E+01      28   77    1       0.3320228686E+03      0.4936888776E+03      0.4966743687E+03      0.3648221048E+01
          0                68           2            28   77     1       0.3647681991E+01      28   77    1       0.3319979967E+03      0.4936487834E+03      0.4936888776E+03      0.3647681991E+01
          0                69           2            28   77     1       0.3647143072E+01      28   77    1       0.3319731328E+03      0.4936165583E+03      0.4936487834E+03      0.3647143072E+01
          1                69           0            28   77     1       0.2553000107E+01      28   77    1      -0.2698961985E+07      0.2698962421E+07      0.4936165583E+03      0.3647143072E+01
          2                69           0            28   77     1       0.1787100045E+01      28   77    1      -0.1603410352E+07      0.1603410633E+07      0.2698962421E+07      0.3647143072E+01
          3                69           0            28   77     1       0.1250970010E+01      28   77    1      -0.8365527112E+06      0.8365529137E+06      0.1603410633E+07      0.3647143072E+01
          4                69           0            28   77     1       0.8756789920E+00      28   77    1      -0.2997663309E+06      0.2997665971E+06      0.8365529137E+06      0.3647143072E+01
          0                70           2            28   77     1       0.3647013707E+01      28   77    1       0.3319671637E+03      0.4936088325E+03      0.2997665971E+06      0.3647013707E+01
                                                   Max.-Head-Change                        Max.-Flux-Residual
  Residual-Control   Outer-Iter.   Inner-Iter.     Column Row Layer    Max.-Head-Change    Column Row Layer    Max.-Flux-Residual            L2-New               L2-Old           Solver-Max-Delh
          1                70           0            28   77     1       0.2552909551E+01      28   77    1      -0.3575673336E+07      0.3575673909E+07      0.4936088325E+03      0.3647013707E+01
          2                70           0            28   77     1       0.1787036656E+01      28   77    1      -0.2480122249E+07      0.2480122652E+07      0.3575673909E+07      0.3647013707E+01
          3                70           0            28   77     1       0.1250925638E+01      28   77    1      -0.1713264987E+07      0.1713265282E+07      0.2480122652E+07      0.3647013707E+01
          4                70           0            28   77     1       0.8756479314E+00      28   77    1      -0.1176478872E+07      0.1176479103E+07      0.1713265282E+07      0.3647013707E+01
          5                70           0            28   77     1       0.6129535416E+00      28   77    1      -0.8007354376E+06      0.8007356384E+06      0.1176479103E+07      0.3647013707E+01
          6                70           0            28   77     1       0.4290674718E+00      28   77    1      -0.5377183893E+06      0.5377185918E+06      0.8007356384E+06      0.3647013707E+01
          7                70           0            28   77     1       0.3003472251E+00      28   77    1      -0.3536081008E+06      0.3536083409E+06      0.5377185918E+06      0.3647013707E+01
          8                70           0            28   77     1       0.2102430540E+00      28   77    1      -0.2247317057E+06      0.2247320352E+06      0.3536083409E+06      0.3647013707E+01
          9                70           0            28   77     1       0.1471701353E+00      28   77    1      -0.1345186250E+06      0.1345191405E+06      0.2247320352E+06      0.3647013707E+01
         10                70           0            28   77     1       0.1030190930E+00      28   77    1      -0.7136966272E+05      0.7137060801E+05      0.1345191405E+06      0.3647013707E+01
                                                   Max.-Head-Change                        Max.-Flux-Residual
  Residual-Control   Outer-Iter.   Inner-Iter.     Column Row Layer    Max.-Head-Change    Column Row Layer    Max.-Flux-Residual            L2-New               L2-Old           Solver-Max-Delh
         11                70           0            28   77     1       0.7211336384E-01      28   77    1      -0.2716548458E+05      0.2716794467E+05      0.7137060801E+05      0.3647013707E+01
          0                71           2            28   77     1       0.3647003054E+01      28   77    1       0.3319666722E+03      0.4936081963E+03      0.2716794467E+05      0.3647003054E+01
          1                71           0            28   77     1       0.2552902094E+01      28   77    1      -0.3647873082E+07      0.3647873667E+07      0.4936081963E+03      0.3647003054E+01
          2                71           0            28   77     1       0.1787031436E+01      28   77    1      -0.2552322040E+07      0.2552322454E+07      0.3647873667E+07      0.3647003054E+01
          3                71           0            28   77     1       0.1250921984E+01      28   77    1      -0.1785464810E+07      0.1785465115E+07      0.2552322454E+07      0.3647003054E+01
          4                71           0            28   77     1       0.8756453736E+00      28   77    1      -0.1248678717E+07      0.1248678955E+07      0.1785465115E+07      0.3647003054E+01
          5                71           0            28   77     1       0.6129517511E+00      28   77    1      -0.8729352977E+06      0.8729355023E+06      0.1248678955E+07      0.3647003054E+01
          6                71           0            28   77     1       0.4290662184E+00      28   77    1      -0.6099182600E+06      0.6099184585E+06      0.8729355023E+06      0.3647003054E+01
          7                71           0            28   77     1       0.3003463478E+00      28   77    1      -0.4258079789E+06      0.4258081976E+06      0.6099184585E+06      0.3647003054E+01
          8                71           0            28   77     1       0.2102424399E+00      28   77    1      -0.2969315890E+06      0.2969318569E+06      0.4258081976E+06      0.3647003054E+01
                                                   Max.-Head-Change                        Max.-Flux-Residual
  Residual-Control   Outer-Iter.   Inner-Iter.     Column Row Layer    Max.-Head-Change    Column Row Layer    Max.-Flux-Residual            L2-New               L2-Old           Solver-Max-Delh
          9                71           0            28   77     1       0.1471697054E+00      28   77    1      -0.2067185120E+06      0.2067188648E+06      0.2969318569E+06      0.3647003054E+01
         10                71           0            28   77     1       0.1030187920E+00      28   77    1      -0.1435695523E+06      0.1435700379E+06      0.2067188648E+06      0.3647003054E+01
         11                71           0            28   77     1       0.7211315319E-01      28   77    1      -0.9936537592E+05      0.9936606186E+05      0.1435700379E+06      0.3647003054E+01
         12                71           0            28   77     1       0.5047920638E-01      28   77    1      -0.6842249939E+05      0.6842348452E+05      0.9936606186E+05      0.3647003054E+01
         13                71           0            28   77     1       0.3533544386E-01      28   77    1      -0.4676250891E+05      0.4676394259E+05      0.6842348452E+05      0.3647003054E+01
         14                71           0            28   77     1       0.2473481028E-01      28   77    1      -0.3160052697E+05      0.3160264302E+05      0.4676394259E+05      0.3647003054E+01
         15                71           0            28   77     1       0.1731436690E-01      28   77    1      -0.2098714526E+05      0.2099032739E+05      0.3160264302E+05      0.3647003054E+01
         16                71           0            28   77     1       0.1212005663E-01      28   77    1      -0.1355778085E+05      0.1356270343E+05      0.2099032739E+05      0.3647003054E+01
         17                71           0            28   77     1       0.8484039493E-02      28   77    1      -0.8357227171E+04      0.8365208597E+04      0.1356270343E+05      0.3647003054E+01
         18                71           0            28   77     1       0.5938827544E-02      28   77    1      -0.4716840298E+04      0.4730965745E+04      0.8365208597E+04      0.3647003054E+01
                                                   Max.-Head-Change                        Max.-Flux-Residual
  Residual-Control   Outer-Iter.   Inner-Iter.     Column Row Layer    Max.-Head-Change    Column Row Layer    Max.-Flux-Residual            L2-New               L2-Old           Solver-Max-Delh
         19                71           0            28   77     1       0.4157179210E-02      28   77    1      -0.2168569844E+04      0.2199123490E+04      0.4730965745E+04      0.3647003054E+01
          0                72           2            25   74     1       0.2411955631E+01      28   77    1      -0.3847807111E+03      0.5305690391E+03      0.2199123490E+04      0.2411955631E+01
          0                73           2            25   74     1       0.2411738067E+01      25   74    1       0.2195183300E+03      0.3657896638E+03      0.5305690391E+03      0.2411738067E+01
          0                74           2            25   74     1       0.2411520541E+01      25   74    1       0.2195090992E+03      0.3652637442E+03      0.3657896638E+03      0.2411520541E+01
          0                75           2            25   74     1       0.2411303054E+01      25   74    1       0.2194998692E+03      0.3652415994E+03      0.3652637442E+03      0.2411303054E+01
          0                76           2            25   74     1       0.2411085606E+01      25   74    1       0.2194906399E+03      0.3652207166E+03      0.3652415994E+03      0.2411085606E+01
          0                77           2            25   74     1       0.2410868196E+01      25   74    1       0.2194814111E+03      0.3651998390E+03      0.3652207166E+03      0.2410868196E+01
          0                78           2            25   74     1       0.2410650825E+01      25   74    1       0.2194721829E+03      0.3651789633E+03      0.3651998390E+03      0.2410650825E+01
          0                79           2            25   74     1       0.2410433493E+01      25   74    1       0.2194629554E+03      0.3651580895E+03      0.3651789633E+03      0.2410433493E+01
          0                80           2            25   74     1       0.2410216200E+01      25   74    1       0.2194537285E+03      0.3651372176E+03      0.3651580895E+03      0.2410216200E+01
                                                   Max.-Head-Change                        Max.-Flux-Residual
  Residual-Control   Outer-Iter.   Inner-Iter.     Column Row Layer    Max.-Head-Change    Column Row Layer    Max.-Flux-Residual            L2-New               L2-Old           Solver-Max-Delh
          0                81           2            25   74     1       0.2409998945E+01      25   74    1       0.2194445022E+03      0.3651163477E+03      0.3651372176E+03      0.2409998945E+01
          0                82           2            25   74     1       0.2409781729E+01      25   74    1       0.2194352764E+03      0.3650958540E+03      0.3651163477E+03      0.2409781729E+01
          0                83           2            25   74     1       0.2409564552E+01      25   74    1       0.2194260513E+03      0.3650794196E+03      0.3650958540E+03      0.2409564552E+01
          1                83           0            25   74     1       0.1686695157E+01      32   77    1      -0.2701074701E+06      0.2701077528E+06      0.3650794196E+03      0.2409564552E+01
          2                83           0            25   74     1       0.1180686590E+01      32   77    1      -0.1590920833E+06      0.1590925209E+06      0.2701077528E+06      0.2409564552E+01
          3                83           0            25   74     1       0.8264805990E+00      32   77    1      -0.8138160659E+05      0.8138242987E+05      0.1590925209E+06      0.2409564552E+01
          4                83           0            25   74     1       0.5785364094E+00      32   77    1      -0.2698441732E+05      0.2698686957E+05      0.8138242987E+05      0.2409564552E+01
          0                84           2            25   74     1       0.2409512415E+01      25   74    1       0.2194238366E+03      0.3650754741E+03      0.2698686957E+05      0.2409512415E+01
          1                84           0            25   74     1       0.1686658662E+01      32   77    1      -0.3589526754E+06      0.3589529101E+06      0.3650754741E+03      0.2409512415E+01
          2                84           0            25   74     1       0.1180661043E+01      32   77    1      -0.2479382310E+06      0.2479385323E+06      0.3589529101E+06      0.2409512415E+01
                                                   Max.-Head-Change                        Max.-Flux-Residual
  Residual-Control   Outer-Iter.   Inner-Iter.     Column Row Layer    Max.-Head-Change    Column Row Layer    Max.-Flux-Residual            L2-New               L2-Old           Solver-Max-Delh
          3                84           0            25   74     1       0.8264627161E+00      32   77    1      -0.1702284140E+06      0.1702288261E+06      0.2479385323E+06      0.2409512415E+01
          4                84           0            25   74     1       0.5785238914E+00      32   77    1      -0.1158316865E+06      0.1158322732E+06      0.1702288261E+06      0.2409512415E+01
          5                84           0            25   74     1       0.4049667171E+00      32   77    1      -0.7775404825E+05      0.7775490891E+05      0.1158322732E+06      0.2409512415E+01
          6                84           0            25   74     1       0.2834766971E+00      32   77    1      -0.5109973635E+05      0.5110103652E+05      0.7775490891E+05      0.2409512415E+01
          7                84           0            25   74     1       0.1984336846E+00      32   77    1      -0.3244173522E+05      0.3244377638E+05      0.5110103652E+05      0.2409512415E+01
          8                84           0            25   74     1       0.1389035769E+00      32   77    1      -0.1938114292E+05      0.1938455451E+05      0.3244377638E+05      0.2409512415E+01
          9                84           0            25   74     1       0.9723250215E-01      32   77    1      -0.1023873252E+05      0.1024518525E+05      0.1938455451E+05      0.2409512415E+01
         10                84           0            25   74     1       0.6806275035E-01      32   77    1      -0.3839047336E+04      0.3856220493E+04      0.1024518525E+05      0.2409512415E+01
          0                85           2            25   74     1       0.2409506281E+01      25   74    1       0.2194235760E+03      0.3650750099E+03      0.3856220493E+04      0.2409506281E+01
          1                85           0            25   74     1       0.1686654368E+01      32   77    1      -0.3694051188E+06      0.3694053498E+06      0.3650750099E+03      0.2409506281E+01
                                                   Max.-Head-Change                        Max.-Flux-Residual
  Residual-Control   Outer-Iter.   Inner-Iter.     Column Row Layer    Max.-Head-Change    Column Row Layer    Max.-Flux-Residual            L2-New               L2-Old           Solver-Max-Delh
          2                85           0            25   74     1       0.1180658038E+01      32   77    1      -0.2583907853E+06      0.2583910773E+06      0.3694053498E+06      0.2409506281E+01
          3                85           0            25   74     1       0.8264606123E+00      32   77    1      -0.1806810459E+06      0.1806814370E+06      0.2583910773E+06      0.2409506281E+01
          4                85           0            25   74     1       0.5785224187E+00      32   77    1      -0.1262843728E+06      0.1262849137E+06      0.1806814370E+06      0.2409506281E+01
          5                85           0            25   74     1       0.4049656862E+00      32   77    1      -0.8820677250E+05      0.8820753392E+05      0.1262849137E+06      0.2409506281E+01
          6                85           0            25   74     1       0.2834759755E+00      32   77    1      -0.6155248722E+05      0.6155356927E+05      0.8820753392E+05      0.2409506281E+01
          7                85           0            25   74     1       0.1984331795E+00      32   77    1      -0.4289450472E+05      0.4289605107E+05      0.6155356927E+05      0.2409506281E+01
          8                85           0            25   74     1       0.1389032233E+00      32   77    1      -0.2983392546E+05      0.2983614427E+05      0.4289605107E+05      0.2409506281E+01
          9                85           0            25   74     1       0.9723225464E-01      32   77    1      -0.2069152419E+05      0.2069472012E+05      0.2983614427E+05      0.2409506281E+01
         10                85           0            25   74     1       0.6806257709E-01      32   77    1      -0.1429184540E+05      0.1429646984E+05      0.2069472012E+05      0.2409506281E+01
         11                85           0            25   74     1       0.4764380315E-01      32   77    1      -0.9812071294E+04      0.9818804296E+04      0.1429646984E+05      0.2409506281E+01
                                                   Max.-Head-Change                        Max.-Flux-Residual
  Residual-Control   Outer-Iter.   Inner-Iter.     Column Row Layer    Max.-Head-Change    Column Row Layer    Max.-Flux-Residual            L2-New               L2-Old           Solver-Max-Delh
         12                85           0            25   74     1       0.3335066164E-01      32   77    1      -0.6676229949E+04      0.6686120450E+04      0.9818804296E+04      0.2409506281E+01
         13                85           0            25   74     1       0.2334546275E-01      32   77    1      -0.4481141279E+04      0.4495862619E+04      0.6686120450E+04      0.2409506281E+01
         14                85           0            25   74     1       0.1634182365E-01      32   77    1      -0.2944579351E+04      0.2966934093E+04      0.4495862619E+04      0.2409506281E+01
         15                85           0            25   74     1       0.1143927636E-01      32   77    1      -0.1868986075E+04      0.1904010998E+04      0.2966934093E+04      0.2409506281E+01
         16                85           0            25   74     1       0.8007493314E-02      32   77    1      -0.1116070823E+04      0.1173781239E+04      0.1904010998E+04      0.2409506281E+01
         17                85           0            25   74     1       0.5605245224E-02      32   77    1      -0.5890301686E+03      0.6921738313E+03      0.1173781239E+04      0.2409506281E+01
         18                85           0            25   74     1       0.3923671590E-02      32   77    1      -0.2201017232E+03      0.4249620740E+03      0.6921738313E+03      0.2409506281E+01
          0                86           2            25   74     1       0.2409505928E+01      25   74    1       0.2194235610E+03      0.3635813839E+03      0.4249620740E+03      0.2409505928E+01
          0                87           2            25   74     1       0.2409288800E+01      25   74    1       0.2194143366E+03      0.3635072256E+03      0.3635813839E+03      0.2409288800E+01
          0                88           2            25   74     1       0.2409071710E+01      25   74    1       0.2194051129E+03      0.3634895445E+03      0.3635072256E+03      0.2409071710E+01
                                                   Max.-Head-Change                        Max.-Flux-Residual
  Residual-Control   Outer-Iter.   Inner-Iter.     Column Row Layer    Max.-Head-Change    Column Row Layer    Max.-Flux-Residual            L2-New               L2-Old           Solver-Max-Delh
          0                89           2            25   74     1       0.2408854659E+01      25   74    1       0.2193958898E+03      0.3634736552E+03      0.3634895445E+03      0.2408854659E+01
          0                90           2            25   74     1       0.2408637647E+01      25   74    1       0.2193866673E+03      0.3634577729E+03      0.3634736552E+03      0.2408637647E+01
          1                90           0            25   74     1       0.1686046324E+01      28   75    1      -0.5427139510E+06      0.5427140864E+06      0.3634577729E+03      0.2408637647E+01
          0                91           2            25   74     1       0.2408485763E+01      25   74    1       0.2193802120E+03      0.3634466562E+03      0.5427140864E+06      0.2408485763E+01
          1                91           0            25   74     1       0.1685940006E+01      28   75    1      -0.2064902861E+07      0.2064903081E+07      0.3634466562E+03      0.2408485763E+01
          2                91           0            25   74     1       0.1180157984E+01      28   75    1      -0.1412506778E+07      0.1412506943E+07      0.2064903081E+07      0.2408485763E+01
          3                91           0            25   74     1       0.8261105746E+00      28   75    1      -0.9558396305E+06      0.9558397677E+06      0.1412506943E+07      0.2408485763E+01
          4                91           0            25   74     1       0.5782773924E+00      28   75    1      -0.6361775832E+06      0.6361777147E+06      0.9558397677E+06      0.2408485763E+01
          5                91           0            25   74     1       0.4047941678E+00      28   75    1      -0.4124165796E+06      0.4124167301E+06      0.6361777147E+06      0.2408485763E+01
          6                91           0            25   74     1       0.2833559126E+00      28   75    1      -0.2557850685E+06      0.2557852736E+06      0.4124167301E+06      0.2408485763E+01
                                                   Max.-Head-Change                        Max.-Flux-Residual
  Residual-Control   Outer-Iter.   Inner-Iter.     Column Row Layer    Max.-Head-Change    Column Row Layer    Max.-Flux-Residual            L2-New               L2-Old           Solver-Max-Delh
          7                91           0            25   74     1       0.1983491355E+00      28   75    1      -0.1461435949E+06      0.1461439264E+06      0.2557852736E+06      0.2408485763E+01
          8                91           0            25   74     1       0.1388443925E+00      28   75    1      -0.6939485013E+05      0.6939552660E+05      0.1461439264E+06      0.2408485763E+01
          9                91           0            25   74     1       0.9719107306E-01      28   75    1      -0.1567086954E+05      0.1567383837E+05      0.6939552660E+05      0.2408485763E+01
          0                92           2            25   74     1       0.2408477008E+01      25   74    1       0.2193798399E+03      0.3634460154E+03      0.1567383837E+05      0.2408477008E+01
          1                92           0            25   74     1       0.1685933877E+01      28   75    1      -0.2152651164E+07      0.2152651392E+07      0.3634460154E+03      0.2408477008E+01
          2                92           0            25   74     1       0.1180153694E+01      28   75    1      -0.1500255225E+07      0.1500255397E+07      0.2152651392E+07      0.2408477008E+01
          3                92           0            25   74     1       0.8261075717E+00      28   75    1      -0.1043588178E+07      0.1043588320E+07      0.1500255397E+07      0.2408477008E+01
          4                92           0            25   74     1       0.5782752903E+00      28   75    1      -0.7239262013E+06      0.7239263322E+06      0.1043588320E+07      0.2408477008E+01
          5                92           0            25   74     1       0.4047926963E+00      28   75    1      -0.5001652471E+06      0.5001653859E+06      0.7239263322E+06      0.2408477008E+01
          6                92           0            25   74     1       0.2833548826E+00      28   75    1      -0.3435337704E+06      0.3435339371E+06      0.5001653859E+06      0.2408477008E+01
                                                   Max.-Head-Change                        Max.-Flux-Residual
  Residual-Control   Outer-Iter.   Inner-Iter.     Column Row Layer    Max.-Head-Change    Column Row Layer    Max.-Flux-Residual            L2-New               L2-Old           Solver-Max-Delh
          7                92           0            25   74     1       0.1983484144E+00      28   75    1      -0.2338923210E+06      0.2338925412E+06      0.3435339371E+06      0.2408477008E+01
          8                92           0            25   74     1       0.1388438877E+00      28   75    1      -0.1571435932E+06      0.1571439034E+06      0.2338925412E+06      0.2408477008E+01
          9                92           0            25   74     1       0.9719071977E-01      28   75    1      -0.1034196244E+06      0.1034200835E+06      0.1571439034E+06      0.2408477008E+01
         10                92           0            25   74     1       0.6803350268E-01      28   75    1      -0.6581291545E+05      0.6581362807E+05      0.1034200835E+06      0.2408477008E+01
         11                92           0            25   74     1       0.4762345106E-01      28   75    1      -0.3948825320E+05      0.3948943449E+05      0.6581362807E+05      0.2408477008E+01
         12                92           0            25   74     1       0.3333641518E-01      28   75    1      -0.2106100639E+05      0.2106321635E+05      0.3948943449E+05      0.2408477008E+01
         13                92           0            25   74     1       0.2333549023E-01      28   75    1      -0.8161941899E+04      0.8167638565E+04      0.2106321635E+05      0.2408477008E+01
          0                93           2            25   74     1       0.2408474906E+01      25   74    1       0.2193797506E+03      0.3634458615E+03      0.8167638565E+04      0.2408474906E+01
          1                93           0            25   74     1       0.1685932406E+01      28   75    1      -0.2173719498E+07      0.2173719727E+07      0.3634458615E+03      0.2408474906E+01
          2                93           0            25   74     1       0.1180152664E+01      28   75    1      -0.1521323593E+07      0.1521323766E+07      0.2173719727E+07      0.2408474906E+01
                                                   Max.-Head-Change                        Max.-Flux-Residual
  Residual-Control   Outer-Iter.   Inner-Iter.     Column Row Layer    Max.-Head-Change    Column Row Layer    Max.-Flux-Residual            L2-New               L2-Old           Solver-Max-Delh
          3                93           0            25   74     1       0.8261068507E+00      28   75    1      -0.1064656570E+07      0.1064656713E+07      0.1521323766E+07      0.2408474906E+01
          4                93           0            25   74     1       0.5782747856E+00      28   75    1      -0.7449946104E+06      0.7449947415E+06      0.1064656713E+07      0.2408474906E+01
          5                93           0            25   74     1       0.4047923430E+00      28   75    1      -0.5212336680E+06      0.5212338050E+06      0.7449947415E+06      0.2408474906E+01
          6                93           0            25   74     1       0.2833546353E+00      28   75    1      -0.3646021997E+06      0.3646023605E+06      0.5212338050E+06      0.2408474906E+01
          7                93           0            25   74     1       0.1983482413E+00      28   75    1      -0.2549607561E+06      0.2549609617E+06      0.3646023605E+06      0.2408474906E+01
          8                93           0            25   74     1       0.1388437666E+00      28   75    1      -0.1782120323E+06      0.1782123094E+06      0.2549609617E+06      0.2408474906E+01
          9                93           0            25   74     1       0.9719063494E-01      28   75    1      -0.1244880664E+06      0.1244884512E+06      0.1782123094E+06      0.2408474906E+01
         10                93           0            25   74     1       0.6803344330E-01      28   75    1      -0.8688135938E+05      0.8688190256E+05      0.1244884512E+06      0.2408474906E+01
         11                93           0            25   74     1       0.4762340950E-01      28   75    1      -0.6055669852E+05      0.6055747200E+05      0.8688190256E+05      0.2408474906E+01
         12                93           0            25   74     1       0.3333638608E-01      28   75    1      -0.4212945268E+05      0.4213056039E+05      0.6055747200E+05      0.2408474906E+01
                                                   Max.-Head-Change                        Max.-Flux-Residual
  Residual-Control   Outer-Iter.   Inner-Iter.     Column Row Layer    Max.-Head-Change    Column Row Layer    Max.-Flux-Residual            L2-New               L2-Old           Solver-Max-Delh
         13                93           0            25   74     1       0.2333546986E-01      28   75    1      -0.2923038888E+05      0.2923198252E+05      0.4213056039E+05      0.2408474906E+01
         14                93           0            25   74     1       0.1633482862E-01      28   75    1      -0.2020104832E+05      0.2020335219E+05      0.2923198252E+05      0.2408474906E+01
         15                93           0            25   74     1       0.1143437984E-01      28   75    1      -0.1388051197E+05      0.1388386329E+05      0.2020335219E+05      0.2408474906E+01
         16                93           0            25   74     1       0.8004065753E-02      28   75    1      -0.9456137552E+04      0.9461055215E+04      0.1388386329E+05      0.2408474906E+01
         17                93           0            25   74     1       0.5602845932E-02      28   75    1      -0.6359075975E+04      0.6366385676E+04      0.9461055215E+04      0.2408474906E+01
         18                93           0            25   74     1       0.3921992085E-02      28   75    1      -0.4191133137E+04      0.4202215131E+04      0.6366385676E+04      0.2408474906E+01
         19                93           0            25   74     1       0.2745394413E-02      28   75    1      -0.2673573286E+04      0.2690911960E+04      0.4202215131E+04      0.2408474906E+01
         20                93           0            25   74     1       0.1921776056E-02      28   75    1      -0.1611281465E+04      0.1639890278E+04      0.2690911960E+04      0.2408474906E+01
         21                93           0            25   74     1       0.1345243217E-02      28   75    1      -0.8676772285E+03      0.9197149328E+03      0.1639890278E+04      0.2408474906E+01
         22                93           0            25   74     1       0.9416702356E-03      28   75    1      -0.3471542852E+03      0.4620906119E+03      0.9197149328E+03      0.2408474906E+01
                                                   Max.-Head-Change                        Max.-Flux-Residual
  Residual-Control   Outer-Iter.   Inner-Iter.     Column Row Layer    Max.-Head-Change    Column Row Layer    Max.-Flux-Residual            L2-New               L2-Old           Solver-Max-Delh
          0                94           2            25   74     1       0.2408474822E+01      25   74    1       0.2193797470E+03      0.3054633116E+03      0.4620906119E+03      0.2408474822E+01
          0                95           2            25   74     1       0.2408257877E+01      25   74    1       0.2193705255E+03      0.3049702086E+03      0.3054633116E+03      0.2408257877E+01
          0                96           2            25   74     1       0.2408040971E+01      25   74    1       0.2193613047E+03      0.3049526985E+03      0.3049702086E+03      0.2408040971E+01
          0                97           2            25   74     1       0.2407824103E+01      25   74    1       0.2193520845E+03      0.3049400222E+03      0.3049526985E+03      0.2407824103E+01
          0                98           2            25   74     1       0.2407607274E+01      25   74    1       0.2193428649E+03      0.3049273588E+03      0.3049400222E+03      0.2407607274E+01
          0                99           2            25   74     1       0.2407390484E+01      25   74    1       0.2193336459E+03      0.3049146963E+03      0.3049273588E+03      0.2407390484E+01
          0               100           2            25   74     1       0.2407173732E+01      25   74    1       0.2193244275E+03      0.3049020347E+03      0.3049146963E+03      0.2407173732E+01
          1               100           0            25   74     1       0.1685021584E+01      30   73    1      -0.6350036011E+06      0.6350039166E+06      0.3049020347E+03      0.2407173732E+01
          2               100           0            25   74     1       0.1179515089E+01      30   73    1      -0.3400448061E+06      0.3400450636E+06      0.6350039166E+06      0.2407173732E+01
          3               100           0            25   74     1       0.8256605480E+00      30   73    1      -0.1335762320E+06      0.1335766019E+06      0.3400450636E+06      0.2407173732E+01
                                                   Max.-Head-Change                        Max.-Flux-Residual
  Residual-Control   Outer-Iter.   Inner-Iter.     Column Row Layer    Max.-Head-Change    Column Row Layer    Max.-Flux-Residual            L2-New               L2-Old           Solver-Max-Delh
          0               101           2            25   74     1       0.2407099397E+01      25   74    1       0.2193212658E+03      0.3048976921E+03      0.1335766019E+06      0.2407099397E+01
          1               101           0            25   74     1       0.1684969550E+01      30   73    1      -0.9722241069E+06      0.9722912032E+06      0.3048976921E+03      0.2407099397E+01
          2               101           0            25   74     1       0.1179478665E+01      30   73    1      -0.6772666556E+06      0.6772670665E+06      0.9722912032E+06      0.2407099397E+01
          3               101           0            25   74     1       0.8256350512E+00      30   73    1      -0.4707990220E+06      0.4707992961E+06      0.6772670665E+06      0.2407099397E+01
          4               101           0            25   74     1       0.5779445260E+00      30   73    1      -0.3262729445E+06      0.3262732018E+06      0.4707992961E+06      0.2407099397E+01
          5               101           0            25   74     1       0.4045611613E+00      30   73    1      -0.2251053111E+06      0.2251055874E+06      0.3262732018E+06      0.2407099397E+01
          6               101           0            25   74     1       0.2831928081E+00      30   73    1      -0.1542882723E+06      0.1542886076E+06      0.2251055874E+06      0.2407099397E+01
          7               101           0            25   74     1       0.1982349623E+00      30   73    1      -0.1047164947E+06      0.1047169411E+06      0.1542886076E+06      0.2407099397E+01
          8               101           0            25   74     1       0.1387644712E+00      30   73    1      -0.7001632374E+05      0.7001695776E+05      0.1047169411E+06      0.2407099397E+01
          9               101           0            25   74     1       0.9713512821E-01      30   73    1      -0.4572624020E+05      0.4572718714E+05      0.7001695776E+05      0.2407099397E+01
                                                   Max.-Head-Change                        Max.-Flux-Residual
  Residual-Control   Outer-Iter.   Inner-Iter.     Column Row Layer    Max.-Head-Change    Column Row Layer    Max.-Flux-Residual            L2-New               L2-Old           Solver-Max-Delh
         10               101           0            25   74     1       0.6799458859E-01      30   73    1      -0.2872319951E+05      0.2872468984E+05      0.4572718714E+05      0.2407099397E+01
         11               101           0            25   74     1       0.4759621120E-01      30   73    1      -0.1682107979E+05      0.1682361199E+05      0.2872468984E+05      0.2407099397E+01
         12               101           0            25   74     1       0.3331734727E-01      30   73    1      -0.8489600331E+04      0.8494606782E+04      0.1682361199E+05      0.2407099397E+01
         13               101           0            25   74     1       0.2332214269E-01      30   73    1      -0.2657566865E+04      0.2673507272E+04      0.8494606782E+04      0.2407099397E+01
          0               102           2            25   74     1       0.2407097298E+01      25   74    1       0.2193211765E+03      0.3048975694E+03      0.2673507272E+04      0.2407097298E+01
          1               102           0            25   74     1       0.1684968080E+01      30   73    1      -0.9817496288E+06      0.9818202852E+06      0.3048975694E+03      0.2407097298E+01
          2               102           0            25   74     1       0.1179477636E+01      30   73    1      -0.6867922155E+06      0.6867928949E+06      0.9818202852E+06      0.2407097298E+01
          3               102           0            25   74     1       0.8256343310E+00      30   73    1      -0.4803246084E+06      0.4803248844E+06      0.6867928949E+06      0.2407097298E+01
          4               102           0            25   74     1       0.5779440218E+00      30   73    1      -0.3357985495E+06      0.3357988068E+06      0.4803248844E+06      0.2407097298E+01
          5               102           0            25   74     1       0.4045608084E+00      30   73    1      -0.2346309291E+06      0.2346312015E+06      0.3357988068E+06      0.2407097298E+01
                                                   Max.-Head-Change                        Max.-Flux-Residual
  Residual-Control   Outer-Iter.   Inner-Iter.     Column Row Layer    Max.-Head-Change    Column Row Layer    Max.-Flux-Residual            L2-New               L2-Old           Solver-Max-Delh
          6               102           0            25   74     1       0.2831925611E+00      30   73    1      -0.1638138994E+06      0.1638142225E+06      0.2346312015E+06      0.2407097298E+01
          7               102           0            25   74     1       0.1982347894E+00      30   73    1      -0.1142421282E+06      0.1142425444E+06      0.1638142225E+06      0.2407097298E+01
          8               102           0            25   74     1       0.1387643502E+00      30   73    1      -0.7954196170E+05      0.7954252675E+05      0.1142425444E+06      0.2407097298E+01
          9               102           0            25   74     1       0.9713504348E-01      30   73    1      -0.5525188129E+05      0.5525267173E+05      0.7954252675E+05      0.2407097298E+01
         10               102           0            25   74     1       0.6799452928E-01      30   73    1      -0.3824884278E+05      0.3824996845E+05      0.5525267173E+05      0.2407097298E+01
         11               102           0            25   74     1       0.4759616968E-01      30   73    1      -0.2634672459E+05      0.2634834742E+05      0.3824996845E+05      0.2407097298E+01
         12               102           0            25   74     1       0.3331731821E-01      30   73    1      -0.1801524620E+05      0.1801761148E+05      0.2634834742E+05      0.2407097298E+01
         13               102           0            25   74     1       0.2332212235E-01      30   73    1      -0.1218321349E+05      0.1218670510E+05      0.1801761148E+05      0.2407097298E+01
         14               102           0            25   74     1       0.1632548537E-01      30   73    1      -0.8100791667E+04      0.8106037947E+04      0.1218670510E+05      0.2407097298E+01
         15               102           0            25   74     1       0.1142783956E-01      30   73    1      -0.5243096934E+04      0.5251196160E+04      0.8106037947E+04      0.2407097298E+01
                                                   Max.-Head-Change                        Max.-Flux-Residual
  Residual-Control   Outer-Iter.   Inner-Iter.     Column Row Layer    Max.-Head-Change    Column Row Layer    Max.-Flux-Residual            L2-New               L2-Old           Solver-Max-Delh
         16               102           0            25   74     1       0.7999487558E-02      30   73    1      -0.3242710897E+04      0.3255788108E+04      0.5251196160E+04      0.2407097298E+01
         17               102           0            25   74     1       0.5599641195E-02      30   73    1      -0.1842440814E+04      0.1865359133E+04      0.3255788108E+04      0.2407097298E+01
         18               102           0            25   74     1       0.3919748770E-02      30   73    1      -0.8622518301E+03      0.9101937036E+03      0.1865359133E+04      0.2407097298E+01
         19               102           0            25   74     1       0.2743824092E-02      25   74    1       0.2193211615E+03      0.3405757256E+03      0.9101937036E+03      0.2407097298E+01
          0               103           2            25   74     1       0.2407097051E+01      25   74    1       0.2193211660E+03      0.3048975550E+03      0.3405757256E+03      0.2407097051E+01
          1               103           0            25   74     1       0.1684967907E+01      30   73    1      -0.9828702964E+06      0.9829413757E+06      0.3048975550E+03      0.2407097051E+01
          2               103           0            25   74     1       0.1179477515E+01      30   73    1      -0.6879128876E+06      0.6879136103E+06      0.9829413757E+06      0.2407097051E+01
          3               103           0            25   74     1       0.8256342462E+00      30   73    1      -0.4814452836E+06      0.4814455599E+06      0.6879136103E+06      0.2407097051E+01
          4               103           0            25   74     1       0.5779439625E+00      30   73    1      -0.3369192269E+06      0.3369194843E+06      0.4814455599E+06      0.2407097051E+01
          5               103           0            25   74     1       0.4045607669E+00      30   73    1      -0.2357516080E+06      0.2357518800E+06      0.3369194843E+06      0.2407097051E+01
                                                   Max.-Head-Change                        Max.-Flux-Residual
  Residual-Control   Outer-Iter.   Inner-Iter.     Column Row Layer    Max.-Head-Change    Column Row Layer    Max.-Flux-Residual            L2-New               L2-Old           Solver-Max-Delh
          6               103           0            25   74     1       0.2831925320E+00      30   73    1      -0.1649345794E+06      0.1649349011E+06      0.2357518800E+06      0.2407097051E+01
          7               103           0            25   74     1       0.1982347690E+00      30   73    1      -0.1153628089E+06      0.1153632220E+06      0.1649349011E+06      0.2407097051E+01
          8               103           0            25   74     1       0.1387643359E+00      30   73    1      -0.8066264299E+05      0.8066320105E+05      0.1153632220E+06      0.2407097051E+01
          9               103           0            25   74     1       0.9713503351E-01      30   73    1      -0.5637256294E+05      0.5637333853E+05      0.8066320105E+05      0.2407097051E+01
         10               103           0            25   74     1       0.6799452230E-01      30   73    1      -0.3936952469E+05      0.3937061918E+05      0.5637333853E+05      0.2407097051E+01
         11               103           0            25   74     1       0.4759616480E-01      30   73    1      -0.2746740668E+05      0.2746896416E+05      0.3937061918E+05      0.2407097051E+01
         12               103           0            25   74     1       0.3331731479E-01      30   73    1      -0.1913592842E+05      0.1913815604E+05      0.2746896416E+05      0.2407097051E+01
         13               103           0            25   74     1       0.2332211996E-01      30   73    1      -0.1330389580E+05      0.1330709419E+05      0.1913815604E+05      0.2407097051E+01
         14               103           0            25   74     1       0.1632548369E-01      30   73    1      -0.9221474035E+04      0.9226083900E+04      0.1330709419E+05      0.2407097051E+01
         15               103           0            25   74     1       0.1142783839E-01      30   73    1      -0.6363779345E+04      0.6370454727E+04      0.9226083900E+04      0.2407097051E+01
                                                   Max.-Head-Change                        Max.-Flux-Residual
  Residual-Control   Outer-Iter.   Inner-Iter.     Column Row Layer    Max.-Head-Change    Column Row Layer    Max.-Flux-Residual            L2-New               L2-Old           Solver-Max-Delh
         16               103           0            25   74     1       0.7999486737E-02      30   73    1      -0.4363393339E+04      0.4373121359E+04      0.6370454727E+04      0.2407097051E+01
         17               103           0            25   74     1       0.5599640620E-02      30   73    1      -0.2963123277E+04      0.2977428490E+04      0.4373121359E+04      0.2407097051E+01
         18               103           0            25   74     1       0.3919748367E-02      30   73    1      -0.1982934308E+04      0.2004246852E+04      0.2977428490E+04      0.2407097051E+01
         19               103           0            25   74     1       0.2743823810E-02      30   73    1      -0.1296802070E+04      0.1329161672E+04      0.2004246852E+04      0.2407097051E+01
         20               103           0            25   74     1       0.1920676635E-02      30   73    1      -0.8165095253E+03      0.8669844860E+03      0.1329161672E+04      0.2407097051E+01
         21               103           0            25   74     1       0.1344473621E-02      30   73    1      -0.4803047565E+03      0.5618421232E+03      0.8669844860E+03      0.2407097051E+01
         22               103           0            25   74     1       0.9411315189E-03      30   73    1      -0.2449614259E+03      0.3807621954E+03      0.5618421232E+03      0.2407097051E+01
          0               104           2            25   74     1       0.2407096966E+01      25   74    1       0.2193211624E+03      0.3023393970E+03      0.3807621954E+03      0.2407096966E+01
          1               104           0            25   74     1       0.1684967848E+01      28  107    1      -0.1179926602E+05      0.1180286629E+05      0.3023393970E+03      0.2407096966E+01
          2               104           0            25   74     1       0.1179477473E+01      28  107    1      -0.7482486015E+03      0.8034647932E+03      0.1180286629E+05      0.2407096966E+01
                                                   Max.-Head-Change                        Max.-Flux-Residual
  Residual-Control   Outer-Iter.   Inner-Iter.     Column Row Layer    Max.-Head-Change    Column Row Layer    Max.-Flux-Residual            L2-New               L2-Old           Solver-Max-Delh
          0               105           2            25   74     1       0.2406990781E+01      25   74    1       0.2193166458E+03      0.2946332100E+03      0.8034647932E+03      0.2406990781E+01
          1               105           0            25   74     1       0.1684893518E+01      28  107    1      -0.2984837493E+05      0.3067520998E+05      0.2946332100E+03      0.2406990781E+01
          2               105           0            25   74     1       0.1179425442E+01      28  107    1      -0.1879761815E+05      0.1887681417E+05      0.3067520998E+05      0.2406990781E+01
          3               105           0            25   74     1       0.8255977957E+00      28  107    1      -0.1106209144E+05      0.1106595455E+05      0.1887681417E+05      0.2406990781E+01
          4               105           0            25   74     1       0.5779184471E+00      28  107    1      -0.5647224257E+04      0.5654815162E+04      0.1106595455E+05      0.2406990781E+01
          5               105           0            25   74     1       0.4045429061E+00      28  107    1      -0.1856817992E+04      0.1879847294E+04      0.5654815162E+04      0.2406990781E+01
          0               106           2            25   74     1       0.2406954362E+01      25   74    1       0.2193150967E+03      0.2937129390E+03      0.1879847294E+04      0.2406954362E+01
          1               106           0            25   74     1       0.1684868025E+01      28  107    1      -0.3603907149E+05      0.3742171880E+05      0.2937129390E+03      0.2406954362E+01
          2               106           0            25   74     1       0.1179407597E+01      28  107    1      -0.2498840411E+05      0.2542979895E+05      0.3742171880E+05      0.2406954362E+01
          3               106           0            25   74     1       0.8255853040E+00      28  107    1      -0.1725293997E+05      0.1728168276E+05      0.2542979895E+05      0.2406954362E+01
                                                   Max.-Head-Change                        Max.-Flux-Residual
  Residual-Control   Outer-Iter.   Inner-Iter.     Column Row Layer    Max.-Head-Change    Column Row Layer    Max.-Flux-Residual            L2-New               L2-Old           Solver-Max-Delh
          4               106           0            25   74     1       0.5779097030E+00      28  107    1      -0.1183811660E+05      0.1184172929E+05      0.1728168276E+05      0.2406954362E+01
          5               106           0            25   74     1       0.4045367852E+00      28  107    1      -0.8047740995E+04      0.8053065627E+04      0.1184172929E+05      0.2406954362E+01
          6               106           0            25   74     1       0.2831757448E+00      28  107    1      -0.5394478461E+04      0.5402432026E+04      0.8053065627E+04      0.2406954362E+01
          7               106           0            25   74     1       0.1982230180E+00      28  107    1      -0.3537194886E+04      0.3549327984E+04      0.5402432026E+04      0.2406954362E+01
          8               106           0            25   74     1       0.1387561102E+00      28  107    1      -0.2237096488E+04      0.2256249338E+04      0.3549327984E+04      0.2406954362E+01
          9               106           0            25   74     1       0.9712927551E-01      28  107    1      -0.1327027665E+04      0.1359087859E+04      0.2256249338E+04      0.2406954362E+01
         10               106           0            25   74     1       0.6799049170E-01      28  107    1      -0.6899795192E+03      0.7498199102E+03      0.1359087859E+04      0.2406954362E+01
         11               106           0            25   74     1       0.4759334338E-01      28  107    1      -0.2440458346E+03      0.3817662882E+03      0.7498199102E+03      0.2406954362E+01
          0               107           2            25   74     1       0.2406950078E+01      25   74    1       0.2193149144E+03      0.2936304324E+03      0.3817662882E+03      0.2406950078E+01
          1               107           0            25   74     1       0.1684865026E+01      28  107    1      -0.3676739470E+05      0.3821860602E+05      0.2936304324E+03      0.2406950078E+01
                                                   Max.-Head-Change                        Max.-Flux-Residual
  Residual-Control   Outer-Iter.   Inner-Iter.     Column Row Layer    Max.-Head-Change    Column Row Layer    Max.-Flux-Residual            L2-New               L2-Old           Solver-Max-Delh
          2               107           0            25   74     1       0.1179405498E+01      28  107    1      -0.2571673784E+05      0.2621183296E+05      0.3821860602E+05      0.2406950078E+01
          3               107           0            25   74     1       0.8255838344E+00      28  107    1      -0.1798128107E+05      0.1803102456E+05      0.2621183296E+05      0.2406950078E+01
          4               107           0            25   74     1       0.5779086743E+00      28  107    1      -0.1256646284E+05      0.1256986534E+05      0.1803102456E+05      0.2406950078E+01
          5               107           0            25   74     1       0.4045360651E+00      28  107    1      -0.8776090849E+04      0.8780972198E+04      0.1256986534E+05      0.2406950078E+01
          6               107           0            25   74     1       0.2831752407E+00      28  107    1      -0.6122830840E+04      0.6129836647E+04      0.8780972198E+04      0.2406950078E+01
          7               107           0            25   74     1       0.1982226651E+00      28  107    1      -0.4265549033E+04      0.4275611286E+04      0.6129836647E+04      0.2406950078E+01
          8               107           0            25   74     1       0.1387558632E+00      28  107    1      -0.2965451872E+04      0.2979920143E+04      0.4275611286E+04      0.2406950078E+01
          9               107           0            25   74     1       0.9712910261E-01      28  107    1      -0.2055383915E+04      0.2076217031E+04      0.2979920143E+04      0.2406950078E+01
         10               107           0            25   74     1       0.6799037067E-01      28  107    1      -0.1418336376E+04      0.1448375448E+04      0.2076217031E+04      0.2406950078E+01
         11               107           0            25   74     1       0.4759325866E-01      28  107    1      -0.9724031159E+03      0.1015730803E+04      0.1448375448E+04      0.2406950078E+01
                                                   Max.-Head-Change                        Max.-Flux-Residual
  Residual-Control   Outer-Iter.   Inner-Iter.     Column Row Layer    Max.-Head-Change    Column Row Layer    Max.-Flux-Residual            L2-New               L2-Old           Solver-Max-Delh
         12               107           0            25   74     1       0.3331528049E-01      28  107    1      -0.6602498438E+03      0.7225585227E+03      0.1015730803E+04      0.2406950078E+01
         13               107           0            25   74     1       0.2332069595E-01      28  107    1      -0.4417425594E+03      0.5303879267E+03      0.7225585227E+03      0.2406950078E+01
         14               107           0            25   74     1       0.1632448689E-01      28  107    1      -0.2887874641E+03      0.4118043742E+03      0.5303879267E+03      0.2406950078E+01
         15               107           0            25   74     1       0.1142714063E-01      25   74    1       0.2193148519E+03      0.3452727485E+03      0.4118043742E+03      0.2406950078E+01
          0               108           2            25   74     1       0.2406949049E+01      25   74    1       0.2193148707E+03      0.3124041594E+03      0.3452727485E+03      0.2406949049E+01
          1               108           0            25   74     1       0.1684864306E+01      31   91    1      -0.1051254269E+05      0.1051659008E+05      0.3124041594E+03      0.2406949049E+01
          2               108           0            25   74     1       0.1179404994E+01      31   91    1      -0.5146972065E+04      0.5155356774E+04      0.1051659008E+05      0.2406949049E+01
          3               108           0            25   74     1       0.8255834816E+00      31   91    1      -0.1391073379E+04      0.1422549617E+04      0.5155356774E+04      0.2406949049E+01
          0               109           2            25   74     1       0.2406874728E+01      25   74    1       0.2193117092E+03      0.3011630415E+03      0.1422549617E+04      0.2406874728E+01
          1               109           0            25   74     1       0.1684812281E+01      31   91    1      -0.1664698581E+05      0.1664954130E+05      0.3011630415E+03      0.2406874728E+01
                                                   Max.-Head-Change                        Max.-Flux-Residual
  Residual-Control   Outer-Iter.   Inner-Iter.     Column Row Layer    Max.-Head-Change    Column Row Layer    Max.-Flux-Residual            L2-New               L2-Old           Solver-Max-Delh
          2               109           0            25   74     1       0.1179368576E+01      31   91    1      -0.1128147192E+05      0.1128526863E+05      0.1664954130E+05      0.2406874728E+01
          3               109           0            25   74     1       0.8255579895E+00      31   91    1      -0.7525612939E+04      0.7531364119E+04      0.1128526863E+05      0.2406874728E+01
          4               109           0            25   74     1       0.5778905828E+00      31   91    1      -0.4896512034E+04      0.4905445069E+04      0.7531364119E+04      0.2406874728E+01
          5               109           0            25   74     1       0.4045234011E+00      31   91    1      -0.3056141596E+04      0.3070565907E+04      0.4905445069E+04      0.2406874728E+01
          6               109           0            25   74     1       0.2831663759E+00      31   91    1      -0.1767882392E+04      0.1792879174E+04      0.3070565907E+04      0.2406874728E+01
          7               109           0            25   74     1       0.1982164598E+00      31   91    1      -0.8661010042E+03      0.9163047663E+03      0.1792879174E+04      0.2406874728E+01
          8               109           0            25   74     1       0.1387515195E+00      31   91    1      -0.2348540626E+03      0.3807738729E+03      0.9163047663E+03      0.2406874728E+01
          0               110           2            25   74     1       0.2406862237E+01      25   74    1       0.2193111779E+03      0.3001446939E+03      0.3807738729E+03      0.2406862237E+01
          1               110           0            25   74     1       0.1684803537E+01      31   91    1      -0.1767799058E+05      0.1768039699E+05      0.3001446939E+03      0.2406862237E+01
          2               110           0            25   74     1       0.1179362456E+01      31   91    1      -0.1231248621E+05      0.1231596267E+05      0.1768039699E+05      0.2406862237E+01
                                                   Max.-Head-Change                        Max.-Flux-Residual
  Residual-Control   Outer-Iter.   Inner-Iter.     Column Row Layer    Max.-Head-Change    Column Row Layer    Max.-Flux-Residual            L2-New               L2-Old           Solver-Max-Delh
          3               110           0            25   74     1       0.8255537052E+00      31   91    1      -0.8556633909E+04      0.8561682730E+04      0.1231596267E+05      0.2406862237E+01
          4               110           0            25   74     1       0.5778875838E+00      31   91    1      -0.5927537676E+04      0.5934895609E+04      0.8561682730E+04      0.2406862237E+01
          5               110           0            25   74     1       0.4045213018E+00      31   91    1      -0.4087170508E+04      0.4097922823E+04      0.5934895609E+04      0.2406862237E+01
          6               110           0            25   74     1       0.2831649064E+00      31   91    1      -0.2798913593E+04      0.2814692251E+04      0.4097922823E+04      0.2406862237E+01
          7               110           0            25   74     1       0.1982154311E+00      31   91    1      -0.1897133808E+04      0.1920447091E+04      0.2814692251E+04      0.2406862237E+01
          8               110           0            25   74     1       0.1387507994E+00      31   91    1      -0.1265887988E+04      0.1300686131E+04      0.1920447091E+04      0.2406862237E+01
          9               110           0            25   74     1       0.9712555794E-01      31   91    1      -0.8240159310E+03      0.8766637394E+03      0.1300686131E+04      0.2406862237E+01
         10               110           0            25   74     1       0.6798788940E-01      31   91    1      -0.5147055012E+03      0.5954995490E+03      0.8766637394E+03      0.2406862237E+01
         11               110           0            25   74     1       0.4759152177E-01      31   91    1      -0.2981882062E+03      0.4227628764E+03      0.5954995490E+03      0.2406862237E+01
         12               110           0            25   74     1       0.3331406467E-01      25   74    1       0.2193109956E+03      0.3337547984E+03      0.4227628764E+03      0.2406862237E+01
                                                   Max.-Head-Change                        Max.-Flux-Residual
  Residual-Control   Outer-Iter.   Inner-Iter.     Column Row Layer    Max.-Head-Change    Column Row Layer    Max.-Flux-Residual            L2-New               L2-Old           Solver-Max-Delh
          0               111           2            25   74     1       0.2406859238E+01      25   74    1       0.2193110503E+03      0.3028658128E+03      0.3337547984E+03      0.2406859238E+01
          0               112           2            25   74     1       0.2406642581E+01      25   74    1       0.2193018334E+03      0.2918978368E+03      0.3028658128E+03      0.2406642581E+01
          0               113           2            25   74     1       0.2406425962E+01      25   74    1       0.2192926171E+03      0.2914655300E+03      0.2918978368E+03      0.2406425962E+01
          0               114           2            25   74     1       0.2406209382E+01      25   74    1       0.2192834014E+03      0.2914294013E+03      0.2914655300E+03      0.2406209382E+01
          0               115           2            25   74     1       0.2405992840E+01      25   74    1       0.2192741864E+03      0.2914164641E+03      0.2914294013E+03      0.2405992840E+01
          0               116           2            25   74     1       0.2405776337E+01      25   74    1       0.2192649719E+03      0.2914042556E+03      0.2914164641E+03      0.2405776337E+01
          0               117           2            25   74     1       0.2405682706E+01      25   74    1       0.2192597046E+03      0.2913950243E+03      0.2914042556E+03      0.2405682706E+01
          0               118           2            25   74     1       0.2405538485E+01      25   74    1       0.2192597046E+03      0.2913897569E+03      0.2913950243E+03      0.2405538485E+01
          0               119           2            25   74     1       0.2405394291E+01      25   74    1       0.2192597046E+03      0.2913844900E+03      0.2913897569E+03      0.2405394291E+01
          0               120           2            25   74     1       0.2405250123E+01      25   74    1       0.2192597046E+03      0.2990672914E+03      0.2913844900E+03      0.2405250123E+01
                                                   Max.-Head-Change                        Max.-Flux-Residual
  Residual-Control   Outer-Iter.   Inner-Iter.     Column Row Layer    Max.-Head-Change    Column Row Layer    Max.-Flux-Residual            L2-New               L2-Old           Solver-Max-Delh
          0               121           2            25   74     1       0.2405105982E+01      25   74    1       0.2192597046E+03      0.2917137271E+03      0.2990672914E+03      0.2405105982E+01
          0               122           2            25   74     1       0.2404961867E+01      25   74    1       0.2192597046E+03      0.2913944468E+03      0.2917137271E+03      0.2404961867E+01
          0               123           2            25   74     1       0.2404817779E+01      25   74    1       0.2192597046E+03      0.2913653643E+03      0.2913944468E+03      0.2404817779E+01
          0               124           2            25   74     1       0.2404673717E+01      25   74    1       0.2192597046E+03      0.2913583047E+03      0.2913653643E+03      0.2404673717E+01
          1               124           0            25   74     1       0.1683271573E+01      25   74    1      -0.1603705018E+07      0.1603706177E+07      0.2913583047E+03      0.2404673717E+01
          2               124           0            25   74     1       0.1178290081E+01      25   74    1      -0.8800888208E+06      0.8800894659E+06      0.1603706177E+07      0.2404673717E+01
          3               124           0            25   74     1       0.8248030429E+00      25   74    1      -0.3735729642E+06      0.3735732772E+06      0.8800894659E+06      0.2404673717E+01
          4               124           0            25   74     1       0.5773621202E+00      25   74    1      -0.1901945246E+05      0.1902043421E+05      0.3735732772E+06      0.2404673717E+01
          0               125           2            25   74     1       0.2404639133E+01      25   74    1       0.2192597046E+03      0.2913569862E+03      0.1902043421E+05      0.2404639133E+01
          1               125           0            25   74     1       0.1683247364E+01      25   74    1      -0.2182823162E+07      0.2182824742E+07      0.2913569862E+03      0.2404639133E+01
                                                   Max.-Head-Change                        Max.-Flux-Residual
  Residual-Control   Outer-Iter.   Inner-Iter.     Column Row Layer    Max.-Head-Change    Column Row Layer    Max.-Flux-Residual            L2-New               L2-Old           Solver-Max-Delh
          2               125           0            25   74     1       0.1178273135E+01      25   74    1      -0.1459196560E+07      0.1459197615E+07      0.2182824742E+07      0.2404639133E+01
          3               125           0            25   74     1       0.8247911805E+00      25   74    1      -0.9526734202E+06      0.9526741158E+06      0.1459197615E+07      0.2404639133E+01
          4               125           0            25   74     1       0.5773538165E+00      25   74    1      -0.5981148098E+06      0.5981152636E+06      0.9526741158E+06      0.2404639133E+01
          5               125           0            25   74     1       0.4041476647E+00      25   74    1      -0.3499275018E+06      0.3499278014E+06      0.5981152636E+06      0.2404639133E+01
          6               125           0            25   74     1       0.2829033604E+00      25   74    1      -0.1761982095E+06      0.1761984384E+06      0.3499278014E+06      0.2404639133E+01
          7               125           0            25   74     1       0.1980323489E+00      25   74    1      -0.5458859888E+05      0.5458897502E+05      0.1761984384E+06      0.2404639133E+01
          0               126           2            25   74     1       0.2404627271E+01      25   74    1       0.2192597046E+03      0.2913565398E+03      0.5458897502E+05      0.2404627271E+01
          1               126           0            25   74     1       0.1683239061E+01      25   74    1      -0.2381461655E+07      0.2381463381E+07      0.2913565398E+03      0.2404627271E+01
          2               126           0            25   74     1       0.1178267323E+01      25   74    1      -0.1657831484E+07      0.1657832682E+07      0.2381463381E+07      0.2404627271E+01
          3               126           0            25   74     1       0.8247871118E+00      25   74    1      -0.1151305846E+07      0.1151306681E+07      0.1657832682E+07      0.2404627271E+01
                                                   Max.-Head-Change                        Max.-Flux-Residual
  Residual-Control   Outer-Iter.   Inner-Iter.     Column Row Layer    Max.-Head-Change    Column Row Layer    Max.-Flux-Residual            L2-New               L2-Old           Solver-Max-Delh
          4               126           0            25   74     1       0.5773509684E+00      25   74    1      -0.7967454870E+06      0.7967460747E+06      0.1151306681E+07      0.2404627271E+01
          5               126           0            25   74     1       0.4041456710E+00      25   74    1      -0.5485569548E+06      0.5485573761E+06      0.7967460747E+06      0.2404627271E+01
          6               126           0            25   74     1       0.2829019649E+00      25   74    1      -0.3748268055E+06      0.3748271192E+06      0.5485573761E+06      0.2404627271E+01
          7               126           0            25   74     1       0.1980313720E+00      25   74    1      -0.2532165950E+06      0.2532168464E+06      0.3748271192E+06      0.2404627271E+01
          8               126           0            25   74     1       0.1386219581E+00      25   74    1      -0.1680898862E+06      0.1680901144E+06      0.2532168464E+06      0.2404627271E+01
          9               126           0            25   74     1       0.9703536900E-01      25   74    1      -0.1085014052E+06      0.1085016517E+06      0.1680901144E+06      0.2404627271E+01
         10               126           0            25   74     1       0.6792475714E-01      25   74    1      -0.6678957416E+05      0.6678989727E+05      0.1085016517E+06      0.2404627271E+01
         11               126           0            25   74     1       0.4754732919E-01      25   74    1      -0.3759134434E+05      0.3759186102E+05      0.6678989727E+05      0.2404627271E+01
         12               126           0            25   74     1       0.3328312987E-01      25   74    1      -0.1715260902E+05      0.1715369479E+05      0.3759186102E+05      0.2404627271E+01
         13               126           0            25   74     1       0.2329819051E-01      25   74    1      -0.2845506877E+04      0.2851970970E+04      0.1715369479E+05      0.2404627271E+01
                                                   Max.-Head-Change                        Max.-Flux-Residual
  Residual-Control   Outer-Iter.   Inner-Iter.     Column Row Layer    Max.-Head-Change    Column Row Layer    Max.-Flux-Residual            L2-New               L2-Old           Solver-Max-Delh
          0               127           2            25   74     1       0.2404625875E+01      25   74    1       0.2192597046E+03      0.2913564875E+03      0.2851970970E+04      0.2404625875E+01
          1               127           0            25   74     1       0.1683238084E+01      25   74    1      -0.2404831286E+07      0.2404833030E+07      0.2913564875E+03      0.2404625875E+01
          2               127           0            25   74     1       0.1178266639E+01      25   74    1      -0.1681200696E+07      0.1681201910E+07      0.2404833030E+07      0.2404625875E+01
          3               127           0            25   74     1       0.8247866331E+00      25   74    1      -0.1174674764E+07      0.1174675615E+07      0.1681201910E+07      0.2404625875E+01
          4               127           0            25   74     1       0.5773506333E+00      25   74    1      -0.8201141987E+06      0.8201148025E+06      0.1174675615E+07      0.2404625875E+01
          5               127           0            25   74     1       0.4041454365E+00      25   74    1      -0.5719255224E+06      0.5719259590E+06      0.8201148025E+06      0.2404625875E+01
          6               127           0            25   74     1       0.2829018007E+00      25   74    1      -0.3981952723E+06      0.3981955997E+06      0.5719259590E+06      0.2404625875E+01
          7               127           0            25   74     1       0.1980312571E+00      25   74    1      -0.2765849913E+06      0.2765852531E+06      0.3981955997E+06      0.2404625875E+01
          8               127           0            25   74     1       0.1386218776E+00      25   74    1      -0.1914582331E+06      0.1914584644E+06      0.2765852531E+06      0.2404625875E+01
          9               127           0            25   74     1       0.9703531268E-01      25   74    1      -0.1318697175E+06      0.1318699503E+06      0.1914584644E+06      0.2404625875E+01
                                                   Max.-Head-Change                        Max.-Flux-Residual
  Residual-Control   Outer-Iter.   Inner-Iter.     Column Row Layer    Max.-Head-Change    Column Row Layer    Max.-Flux-Residual            L2-New               L2-Old           Solver-Max-Delh
         10               127           0            25   74     1       0.6792471772E-01      25   74    1      -0.9015786226E+05      0.9015813035E+05      0.1318699503E+06      0.2404625875E+01
         11               127           0            25   74     1       0.4754730160E-01      25   74    1      -0.6095961550E+05      0.6095996087E+05      0.9015813035E+05      0.2404625875E+01
         12               127           0            25   74     1       0.3328311055E-01      25   74    1      -0.4052086831E+05      0.4052135163E+05      0.6095996087E+05      0.2404625875E+01
         13               127           0            25   74     1       0.2329817699E-01      25   74    1      -0.2621375787E+05      0.2621447908E+05      0.4052135163E+05      0.2404625875E+01
         14               127           0            25   74     1       0.1630872361E-01      25   74    1      -0.1619878677E+05      0.1619993506E+05      0.2621447908E+05      0.2404625875E+01
         15               127           0            25   74     1       0.1141610634E-01      25   74    1      -0.9188310096E+04      0.9190320272E+04      0.1619993506E+05      0.2404625875E+01
         16               127           0            25   74     1       0.7991274299E-02      25   74    1      -0.4280977956E+04      0.4285279162E+04      0.9190320272E+04      0.2404625875E+01
         17               127           0            25   74     1       0.5593891914E-02      25   74    1      -0.8458462286E+03      0.8673361128E+03      0.4285279162E+04      0.2404625875E+01
          0               128           2            25   74     1       0.2404625540E+01      25   74    1       0.2192597046E+03      0.2913564749E+03      0.8673361128E+03      0.2404625540E+01
          1               128           0            25   74     1       0.1683237850E+01      25   74    1      -0.2410442335E+07      0.2410444083E+07      0.2913564749E+03      0.2404625540E+01
                                                   Max.-Head-Change                        Max.-Flux-Residual
  Residual-Control   Outer-Iter.   Inner-Iter.     Column Row Layer    Max.-Head-Change    Column Row Layer    Max.-Flux-Residual            L2-New               L2-Old           Solver-Max-Delh
          2               128           0            25   74     1       0.1178266475E+01      25   74    1      -0.1686811644E+07      0.1686812862E+07      0.2410444083E+07      0.2404625540E+01
          3               128           0            25   74     1       0.8247865182E+00      25   74    1      -0.1180285641E+07      0.1180286497E+07      0.1686812862E+07      0.2404625540E+01
          4               128           0            25   74     1       0.5773505529E+00      25   74    1      -0.8257250268E+06      0.8257256344E+06      0.1180286497E+07      0.2404625540E+01
          5               128           0            25   74     1       0.4041453801E+00      25   74    1      -0.5775363159E+06      0.5775367562E+06      0.8257256344E+06      0.2404625540E+01
          6               128           0            25   74     1       0.2829017613E+00      25   74    1      -0.4038060416E+06      0.4038063724E+06      0.5775367562E+06      0.2404625540E+01
          7               128           0            25   74     1       0.1980312295E+00      25   74    1      -0.2821957437E+06      0.2821960080E+06      0.4038063724E+06      0.2404625540E+01
          8               128           0            25   74     1       0.1386218583E+00      25   74    1      -0.1970689736E+06      0.1970692061E+06      0.2821960080E+06      0.2404625540E+01
          9               128           0            25   74     1       0.9703529916E-01      25   74    1      -0.1374804497E+06      0.1374806808E+06      0.1970692061E+06      0.2404625540E+01
         10               128           0            25   74     1       0.6792470826E-01      25   74    1      -0.9576858863E+05      0.9576884870E+05      0.1374806808E+06      0.2404625540E+01
         11               128           0            25   74     1       0.4754729497E-01      25   74    1      -0.6657033780E+05      0.6657066166E+05      0.9576884870E+05      0.2404625540E+01
                                                   Max.-Head-Change                        Max.-Flux-Residual
  Residual-Control   Outer-Iter.   Inner-Iter.     Column Row Layer    Max.-Head-Change    Column Row Layer    Max.-Flux-Residual            L2-New               L2-Old           Solver-Max-Delh
         12               128           0            25   74     1       0.3328310591E-01      25   74    1      -0.4613158776E+05      0.4613201978E+05      0.6657066166E+05      0.2404625540E+01
         13               128           0            25   74     1       0.2329817374E-01      25   74    1      -0.3182447533E+05      0.3182507668E+05      0.4613201978E+05      0.2404625540E+01
         14               128           0            25   74     1       0.1630872134E-01      25   74    1      -0.2180950284E+05      0.2181036276E+05      0.3182507668E+05      0.2404625540E+01
         15               128           0            25   74     1       0.1141610474E-01      25   74    1      -0.1479902519E+05      0.1480027995E+05      0.2181036276E+05      0.2404625540E+01
         16               128           0            25   74     1       0.7991273185E-02      25   74    1      -0.9891692362E+04      0.9893560623E+04      0.1480027995E+05      0.2404625540E+01
         17               128           0            25   74     1       0.5593891134E-02      25   74    1      -0.6456560156E+04      0.6459415597E+04      0.9893560623E+04      0.2404625540E+01
         18               128           0            25   74     1       0.3915723727E-02      25   74    1      -0.4051968001E+04      0.4056511672E+04      0.6459415597E+04      0.2404625540E+01
         19               128           0            25   74     1       0.2741006562E-02      25   74    1      -0.2368753693E+04      0.2376514040E+04      0.4056511672E+04      0.2404625540E+01
         20               128           0            25   74     1       0.1918704561E-02      25   74    1      -0.1190503781E+04      0.1205867643E+04      0.2376514040E+04      0.2404625540E+01
         21               128           0            25   74     1       0.1343093170E-02      25   74    1      -0.3657288969E+03      0.4130039698E+03      0.1205867643E+04      0.2404625540E+01
                                                   Max.-Head-Change                        Max.-Flux-Residual
  Residual-Control   Outer-Iter.   Inner-Iter.     Column Row Layer    Max.-Head-Change    Column Row Layer    Max.-Flux-Residual            L2-New               L2-Old           Solver-Max-Delh
          0               129           2            25   78     1       0.2083763888E+01      25   74    1       0.1907515247E+03      0.2705548750E+03      0.4130039698E+03      0.2083763888E+01
          0               130           2            25   78     1       0.2083570782E+01      25   78    1       0.1899953632E+03      0.2615177536E+03      0.2705548750E+03      0.2083570782E+01
          0               131           2            25   78     1       0.2083377713E+01      25   78    1       0.1899874288E+03      0.1920593103E+03      0.2615177536E+03      0.2083377713E+01
          0               132           2            25   78     1       0.2083184680E+01      25   78    1       0.1899794951E+03      0.1918461556E+03      0.1920593103E+03      0.2083184680E+01
          0               133           2            25   78     1       0.2082991683E+01      25   78    1       0.1899715619E+03      0.1918376500E+03      0.1918461556E+03      0.2082991683E+01
          0               134           2            25   78     1       0.2082798723E+01      25   78    1       0.1899636293E+03      0.1918296580E+03      0.1918376500E+03      0.2082798723E+01
          1               134           0            25   78     1       0.1457959081E+01      25   78    1      -0.1092315190E+07      0.1092316009E+07      0.1918296580E+03      0.2082798723E+01
          2               134           0            25   78     1       0.1020571340E+01      25   78    1      -0.4654199965E+06      0.4654203514E+06      0.1092316009E+07      0.2082798723E+01
          3               134           0            25   78     1       0.7143999255E+00      25   78    1      -0.2660475422E+05      0.2660480116E+05      0.4654203514E+06      0.2082798723E+01
          0               135           2            25   78     1       0.2082732548E+01      25   78    1       0.1899609086E+03      0.1918269174E+03      0.2660480116E+05      0.2082732548E+01
                                                   Max.-Head-Change                        Max.-Flux-Residual
  Residual-Control   Outer-Iter.   Inner-Iter.     Column Row Layer    Max.-Head-Change    Column Row Layer    Max.-Flux-Residual            L2-New               L2-Old           Solver-Max-Delh
          1               135           0            25   78     1       0.1457912759E+01      25   78    1      -0.1809022346E+07      0.1809023706E+07      0.1918269174E+03      0.2082732548E+01
          2               135           0            25   78     1       0.1020538914E+01      25   78    1      -0.1182125195E+07      0.1182126081E+07      0.1809023706E+07      0.2082732548E+01
          3               135           0            25   78     1       0.7143772276E+00      25   78    1      -0.7433085810E+06      0.7433091408E+06      0.1182126081E+07      0.2082732548E+01
          4               135           0            25   78     1       0.5000640508E+00      25   78    1      -0.4361425353E+06      0.4361428688E+06      0.7433091408E+06      0.2082732548E+01
          5               135           0            25   78     1       0.3500448296E+00      25   78    1      -0.2211290405E+06      0.2211292173E+06      0.4361428688E+06      0.2082732548E+01
          6               135           0            25   78     1       0.2450313765E+00      25   78    1      -0.7062093615E+05      0.7062100668E+05      0.2211292173E+06      0.2082732548E+01
          0               136           2            25   78     1       0.2082709852E+01      25   78    1       0.1899599755E+03      0.1918259774E+03      0.7062100668E+05      0.2082709852E+01
          1               136           0            25   78     1       0.1457896871E+01      25   78    1      -0.2054850838E+07      0.2054852386E+07      0.1918259774E+03      0.2082709852E+01
          2               136           0            25   78     1       0.1020527792E+01      25   78    1      -0.1427953015E+07      0.1427954086E+07      0.2054852386E+07      0.2082709852E+01
          3               136           0            25   78     1       0.7143694426E+00      25   78    1      -0.9891359314E+06      0.9891366737E+06      0.1427954086E+07      0.2082709852E+01
                                                   Max.-Head-Change                        Max.-Flux-Residual
  Residual-Control   Outer-Iter.   Inner-Iter.     Column Row Layer    Max.-Head-Change    Column Row Layer    Max.-Flux-Residual            L2-New               L2-Old           Solver-Max-Delh
          4               136           0            25   78     1       0.5000586013E+00      25   78    1      -0.6819695564E+06      0.6819700708E+06      0.9891366737E+06      0.2082709852E+01
          5               136           0            25   78     1       0.3500410149E+00      25   78    1      -0.4669558310E+06      0.4669561871E+06      0.6819700708E+06      0.2082709852E+01
          6               136           0            25   78     1       0.2450287063E+00      25   78    1      -0.3164475652E+06      0.3164478113E+06      0.4669561871E+06      0.2082709852E+01
          7               136           0            25   78     1       0.1715200915E+00      25   78    1      -0.2110924373E+06      0.2110926068E+06      0.3164478113E+06      0.2082709852E+01
          8               136           0            25   78     1       0.1200640620E+00      25   78    1      -0.1373441705E+06      0.1373442872E+06      0.2110926068E+06      0.2082709852E+01
          9               136           0            25   78     1       0.8404484196E-01      25   78    1      -0.8572054229E+05      0.8572062292E+05      0.1373442872E+06      0.2082709852E+01
         10               136           0            25   78     1       0.5883138837E-01      25   78    1      -0.4958408034E+05      0.4958413773E+05      0.8572062292E+05      0.2082709852E+01
         11               136           0            25   78     1       0.4118197116E-01      25   78    1      -0.2428859525E+05      0.2428864178E+05      0.4958413773E+05      0.2082709852E+01
         12               136           0            25   78     1       0.2882737932E-01      25   78    1      -0.6581774518E+04      0.6581847935E+04      0.2428864178E+05      0.2082709852E+01
          0               137           2            25   78     1       0.2082707181E+01      25   78    1       0.1899598657E+03      0.1918258668E+03      0.6581847935E+04      0.2082707181E+01
                                                   Max.-Head-Change                        Max.-Flux-Residual
  Residual-Control   Outer-Iter.   Inner-Iter.     Column Row Layer    Max.-Head-Change    Column Row Layer    Max.-Flux-Residual            L2-New               L2-Old           Solver-Max-Delh
          1               137           0            25   78     1       0.1457895002E+01      25   78    1      -0.2083772190E+07      0.2083773760E+07      0.1918258668E+03      0.2082707181E+01
          2               137           0            25   78     1       0.1020526484E+01      25   78    1      -0.1456874288E+07      0.1456875381E+07      0.2083773760E+07      0.2082707181E+01
          3               137           0            25   78     1       0.7143685267E+00      25   78    1      -0.1018057149E+07      0.1018057913E+07      0.1456875381E+07      0.2082707181E+01
          4               137           0            25   78     1       0.5000579602E+00      25   78    1      -0.7108907350E+06      0.7108912707E+06      0.1018057913E+07      0.2082707181E+01
          5               137           0            25   78     1       0.3500405662E+00      25   78    1      -0.4958769825E+06      0.4958773598E+06      0.7108912707E+06      0.2082707181E+01
          6               137           0            25   78     1       0.2450283921E+00      25   78    1      -0.3453686977E+06      0.3453689648E+06      0.4958773598E+06      0.2082707181E+01
          7               137           0            25   78     1       0.1715198716E+00      25   78    1      -0.2400135564E+06      0.2400137469E+06      0.3453689648E+06      0.2082707181E+01
          8               137           0            25   78     1       0.1200639081E+00      25   78    1      -0.1662652804E+06      0.1662654177E+06      0.2400137469E+06      0.2082707181E+01
          9               137           0            25   78     1       0.8404473421E-01      25   78    1      -0.1146416456E+06      0.1146417462E+06      0.1662654177E+06      0.2082707181E+01
         10               137           0            25   78     1       0.5883131294E-01      25   78    1      -0.7850517909E+05      0.7850525484E+05      0.1146417462E+06      0.2082707181E+01
                                                   Max.-Head-Change                        Max.-Flux-Residual
  Residual-Control   Outer-Iter.   Inner-Iter.     Column Row Layer    Max.-Head-Change    Column Row Layer    Max.-Flux-Residual            L2-New               L2-Old           Solver-Max-Delh
         11               137           0            25   78     1       0.4118191836E-01      25   78    1      -0.5320969080E+05      0.5320975032E+05      0.7850525484E+05      0.2082707181E+01
         12               137           0            25   78     1       0.2882734236E-01      25   78    1      -0.3550286783E+05      0.3550291785E+05      0.5320975032E+05      0.2082707181E+01
         13               137           0            25   78     1       0.2017913931E-01      25   78    1      -0.2310810105E+05      0.2310814748E+05      0.3550291785E+05      0.2082707181E+01
         14               137           0            25   78     1       0.1412539728E-01      25   78    1      -0.1443176891E+05      0.1443181837E+05      0.2310814748E+05      0.2082707181E+01
         15               137           0            25   78     1       0.9887777925E-02      25   78    1      -0.8358338689E+04      0.8358401808E+04      0.1443181837E+05      0.2082707181E+01
         16               137           0            25   78     1       0.6921444429E-02      25   78    1      -0.4106938678E+04      0.4107043152E+04      0.8358401808E+04      0.2082707181E+01
         17               137           0            25   78     1       0.4845011018E-02      25   78    1      -0.1130959244E+04      0.1131291437E+04      0.4107043152E+04      0.2082707181E+01
          0               138           2            25   78     1       0.2082706733E+01      25   78    1       0.1899598472E+03      0.1918258482E+03      0.1131291437E+04      0.2082706733E+01
          1               138           0            25   78     1       0.1457894688E+01      25   78    1      -0.2088632999E+07      0.2088634572E+07      0.1918258482E+03      0.2082706733E+01
          2               138           0            25   78     1       0.1020526264E+01      25   78    1      -0.1461735084E+07      0.1461736180E+07      0.2088634572E+07      0.2082706733E+01
                                                   Max.-Head-Change                        Max.-Flux-Residual
  Residual-Control   Outer-Iter.   Inner-Iter.     Column Row Layer    Max.-Head-Change    Column Row Layer    Max.-Flux-Residual            L2-New               L2-Old           Solver-Max-Delh
          3               138           0            25   78     1       0.7143683728E+00      25   78    1      -0.1022917935E+07      0.1022918702E+07      0.1461736180E+07      0.2082706733E+01
          4               138           0            25   78     1       0.5000578524E+00      25   78    1      -0.7157515148E+06      0.7157520541E+06      0.1022918702E+07      0.2082706733E+01
          5               138           0            25   78     1       0.3500404907E+00      25   78    1      -0.5007377577E+06      0.5007381386E+06      0.7157520541E+06      0.2082706733E+01
          6               138           0            25   78     1       0.2450283393E+00      25   78    1      -0.3502294697E+06      0.3502297404E+06      0.5007381386E+06      0.2082706733E+01
          7               138           0            25   78     1       0.1715198346E+00      25   78    1      -0.2448743262E+06      0.2448745202E+06      0.3502297404E+06      0.2082706733E+01
          8               138           0            25   78     1       0.1200638822E+00      25   78    1      -0.1711260486E+06      0.1711261894E+06      0.2448745202E+06      0.2082706733E+01
          9               138           0            25   78     1       0.8404471610E-01      25   78    1      -0.1195024128E+06      0.1195025168E+06      0.1711261894E+06      0.2082706733E+01
         10               138           0            25   78     1       0.5883130027E-01      25   78    1      -0.8336594550E+05      0.8336602453E+05      0.1195025168E+06      0.2082706733E+01
         11               138           0            25   78     1       0.4118190949E-01      25   78    1      -0.5807045668E+05      0.5807051918E+05      0.8336602453E+05      0.2082706733E+01
         12               138           0            25   78     1       0.2882733615E-01      25   78    1      -0.4036363334E+05      0.4036368567E+05      0.5807051918E+05      0.2082706733E+01
                                                   Max.-Head-Change                        Max.-Flux-Residual
  Residual-Control   Outer-Iter.   Inner-Iter.     Column Row Layer    Max.-Head-Change    Column Row Layer    Max.-Flux-Residual            L2-New               L2-Old           Solver-Max-Delh
         13               138           0            25   78     1       0.2017913496E-01      25   78    1      -0.2796886630E+05      0.2796891356E+05      0.4036368567E+05      0.2082706733E+01
         14               138           0            25   78     1       0.1412539423E-01      25   78    1      -0.1929253397E+05      0.1929258070E+05      0.2796891356E+05      0.2082706733E+01
         15               138           0            25   78     1       0.9887775794E-02      25   78    1      -0.1321910362E+05      0.1321915448E+05      0.1929258070E+05      0.2082706733E+01
         16               138           0            25   78     1       0.6921442938E-02      25   78    1      -0.8967703517E+04      0.8967764161E+04      0.1321915448E+05      0.2082706733E+01
         17               138           0            25   78     1       0.4845009974E-02      25   78    1      -0.5991724021E+04      0.5991802378E+04      0.8967764161E+04      0.2082706733E+01
         18               138           0            25   78     1       0.3391506924E-02      25   78    1      -0.3908538665E+04      0.3908647430E+04      0.5991802378E+04      0.2082706733E+01
         19               138           0            25   78     1       0.2374054806E-02      25   78    1      -0.2450309066E+04      0.2450471409E+04      0.3908647430E+04      0.2082706733E+01
         20               138           0            25   78     1       0.1661838336E-02      25   78    1      -0.1429548426E+04      0.1429814585E+04      0.2450471409E+04      0.2082706733E+01
         21               138           0            25   78     1       0.1163286816E-02      25   78    1      -0.7150160209E+03      0.7155323596E+03      0.1429814585E+04      0.2082706733E+01
         22               138           0            25   78     1       0.8143007570E-03      25   78    1      -0.2148433604E+03      0.2165214147E+03      0.7155323596E+03      0.2082706733E+01
          0               139           2            31   72     1       0.2043637002E+00      25   78    1       0.1298735911E+03      0.1325942317E+03      0.2165214147E+03      0.2043637002E+00

    ------------------------------------------------
       NWT REQUIRED          139 OUTER ITERATIONS 
       AND A TOTAL OF        278 INNER ITERATIONS.
    ------------------------------------------------

 OUTPUT CONTROL FOR STRESS PERIOD    1   TIME STEP  257
    SAVE HEAD FOR ALL LAYERS
    SAVE DRAWDOWN FOR ALL LAYERS
    SAVE BUDGET
    PRINT BUDGET
 UBDSV1 SAVING "         STORAGE" ON UNIT   9 AT TIME STEP257, STRESS PERIOD   1
 UBDSV2 SAVING "   CONSTANT HEAD" ON UNIT   9 AT TIME STEP257, STRESS PERIOD   1
 UBDSV1 SAVING "FLOW RIGHT FACE " ON UNIT   9 AT TIME STEP257, STRESS PERIOD   1
 UBDSV1 SAVING "FLOW FRONT FACE " ON UNIT   9 AT TIME STEP257, STRESS PERIOD   1
 UBDSV4 SAVING "   RIVER LEAKAGE" ON UNIT   9 AT TIME STEP257, STRESS PERIOD   1
 UBDSV3 SAVING "        RECHARGE" ON UNIT   9 AT TIME STEP257, STRESS PERIOD   1

 HEAD WILL BE SAVED ON UNIT   37 AT END OF TIME STEP  257, STRESS PERIOD    1

 DRAWDOWN WILL BE SAVED ON UNIT   38 AT END OF TIME STEP  257, STRESS PERIOD    1
1
  VOLUMETRIC BUDGET FOR ENTIRE MODEL AT END OF TIME STEP  257, STRESS PERIOD   1
  ------------------------------------------------------------------------------

     CUMULATIVE VOLUMES      L**3       RATES FOR THIS TIME STEP      L**3/T
     ------------------                 ------------------------

           IN:                                      IN:
           ---                                      ---
             STORAGE =   221510544.0000               STORAGE =      715244.6875
       CONSTANT HEAD =           0.0000         CONSTANT HEAD =           0.0000
       RIVER LEAKAGE =  1113779840.0000         RIVER LEAKAGE =     6851098.0000
            RECHARGE =     2968483.2500              RECHARGE =      535468.3125

            TOTAL IN =  1338258816.0000              TOTAL IN =     8101811.0000

          OUT:                                     OUT:
          ----                                     ----
             STORAGE =  1327533824.0000               STORAGE =     7903182.0000
       CONSTANT HEAD =           0.0000         CONSTANT HEAD =           0.0000
       RIVER LEAKAGE =    11141188.0000         RIVER LEAKAGE =      198619.3750
            RECHARGE =           0.0000              RECHARGE =           0.0000

           TOTAL OUT =  1338675072.0000             TOTAL OUT =     8101801.5000

            IN - OUT =     -416256.0000              IN - OUT =           9.5000

 PERCENT DISCREPANCY =          -0.03     PERCENT DISCREPANCY =           0.00






         TIME SUMMARY AT END OF TIME STEP  257 IN STRESS PERIOD    1
                    SECONDS     MINUTES      HOURS       DAYS        YEARS
                    -----------------------------------------------------------
   TIME STEP LENGTH  86400.      1440.0      24.000      1.0000     2.73785E-03
 STRESS PERIOD TIME 2.22048E+07 3.70080E+05  6168.0      257.00     0.70363    
         TOTAL TIME 2.22048E+07 3.70080E+05  6168.0      257.00     0.70363    
1
 
 SOLVING FOR HEAD 
                                                   Max.-Head-Change                        Max.-Flux-Residual
  Residual-Control   Outer-Iter.   Inner-Iter.     Column Row Layer    Max.-Head-Change    Column Row Layer    Max.-Flux-Residual            L2-New               L2-Old           Solver-Max-Delh
          0                 1           2            50   38     1      -0.7491382512E+00      38   82    1       0.3751145392E+06      0.1148267851E+07      0.1325942317E+03     -0.7491382512E+00
          0                 2           2            38   32     1       0.3764473321E+02      16  124    1       0.1000741432E+06      0.1887176126E+06      0.1148267851E+07      0.3764473321E+02
          1                 2           0            38   32     1       0.2635131280E+02      38   32    1      -0.5699983212E+06      0.5702503560E+06      0.1887176126E+06      0.3764473321E+02
          2                 2           0            38   32     1       0.1844591865E+02      38   32    1      -0.3964813990E+06      0.3996205637E+06      0.5702503560E+06      0.3764473321E+02
          3                 2           0            38   32     1       0.1291214283E+02      38   32    1      -0.2750195554E+06      0.2897419383E+06      0.3996205637E+06      0.3764473321E+02
          4                 2           0            38   32     1       0.9038499829E+01      38   32    1      -0.1899962663E+06      0.2248887461E+06      0.2897419383E+06      0.3764473321E+02
          0                 3           2            38   32     1      -0.8067725459E+01      38   32    1      -0.1304799649E+06      0.1919337544E+06      0.2248887461E+06     -0.8067725459E+01
          0                 4           2            38   32     1      -0.4033903249E+00      16  124    1      -0.7364136415E+04      0.1462522707E+05      0.1919337544E+06     -0.4033903249E+00
          0                 5           2            26   78     1       0.1383723094E+00      16  124    1      -0.3682066360E+03      0.7314446312E+03      0.1462522707E+05      0.1383723094E+00

    ------------------------------------------------
       NWT REQUIRED            5 OUTER ITERATIONS 
       AND A TOTAL OF         10 INNER ITERATIONS.
    ------------------------------------------------

 OUTPUT CONTROL FOR STRESS PERIOD    1   TIME STEP  258
    SAVE HEAD FOR ALL LAYERS
    SAVE DRAWDOWN FOR ALL LAYERS
    SAVE BUDGET
    PRINT BUDGET
 UBDSV1 SAVING "         STORAGE" ON UNIT   9 AT TIME STEP258, STRESS PERIOD   1
 UBDSV2 SAVING "   CONSTANT HEAD" ON UNIT   9 AT TIME STEP258, STRESS PERIOD   1
 UBDSV1 SAVING "FLOW RIGHT FACE " ON UNIT   9 AT TIME STEP258, STRESS PERIOD   1
 UBDSV1 SAVING "FLOW FRONT FACE " ON UNIT   9 AT TIME STEP258, STRESS PERIOD   1
 UBDSV4 SAVING "   RIVER LEAKAGE" ON UNIT   9 AT TIME STEP258, STRESS PERIOD   1
 UBDSV3 SAVING "        RECHARGE" ON UNIT   9 AT TIME STEP258, STRESS PERIOD   1

 HEAD WILL BE SAVED ON UNIT   37 AT END OF TIME STEP  258, STRESS PERIOD    1

 DRAWDOWN WILL BE SAVED ON UNIT   38 AT END OF TIME STEP  258, STRESS PERIOD    1
1
  VOLUMETRIC BUDGET FOR ENTIRE MODEL AT END OF TIME STEP  258, STRESS PERIOD   1
  ------------------------------------------------------------------------------

     CUMULATIVE VOLUMES      L**3       RATES FOR THIS TIME STEP      L**3/T
     ------------------                 ------------------------

           IN:                                      IN:
           ---                                      ---
             STORAGE =   222257120.0000               STORAGE =      746576.3750
       CONSTANT HEAD =           0.0000         CONSTANT HEAD =           0.0000
       RIVER LEAKAGE =  1119865600.0000         RIVER LEAKAGE =     6085789.5000
            RECHARGE =     3269826.2500              RECHARGE =      301343.0625

            TOTAL IN =  1345392640.0000              TOTAL IN =     7133709.0000

          OUT:                                     OUT:
          ----                                     ----
             STORAGE =  1334479360.0000               STORAGE =     6945558.5000
       CONSTANT HEAD =           0.0000         CONSTANT HEAD =           0.0000
       RIVER LEAKAGE =    11329439.0000         RIVER LEAKAGE =      188250.6562
            RECHARGE =           0.0000              RECHARGE =           0.0000

           TOTAL OUT =  1345808768.0000             TOTAL OUT =     7133809.0000

            IN - OUT =     -416128.0000              IN - OUT =        -100.0000

 PERCENT DISCREPANCY =          -0.03     PERCENT DISCREPANCY =          -0.00






         TIME SUMMARY AT END OF TIME STEP  258 IN STRESS PERIOD    1
                    SECONDS     MINUTES      HOURS       DAYS        YEARS
                    -----------------------------------------------------------
   TIME STEP LENGTH  86400.      1440.0      24.000      1.0000     2.73785E-03
 STRESS PERIOD TIME 2.22912E+07 3.71520E+05  6192.0      258.00     0.70637    
         TOTAL TIME 2.22912E+07 3.71520E+05  6192.0      258.00     0.70637    
1
 
 SOLVING FOR HEAD 
                                                   Max.-Head-Change                        Max.-Flux-Residual
  Residual-Control   Outer-Iter.   Inner-Iter.     Column Row Layer    Max.-Head-Change    Column Row Layer    Max.-Flux-Residual            L2-New               L2-Old           Solver-Max-Delh
          0                 1           2            38   82     1       0.1051063156E+01      26  115    1      -0.2825991829E+06      0.1092969955E+07      0.4087047411E+02      0.1051063156E+01
          0                 2           2            26  116     1       0.6288188280E+02      12  125    1       0.1229074984E+06      0.1657864826E+06      0.1092969955E+07      0.6288188280E+02
          1                 2           0            26  116     1       0.4401731721E+02      26  116    1      -0.2723515866E+07      0.2723553262E+07      0.1657864826E+06      0.6288188280E+02
          2                 2           0            26  116     1       0.3081212152E+02      26  116    1      -0.1895395406E+07      0.1895950860E+07      0.2723553262E+07      0.6288188280E+02
          3                 2           0            26  116     1       0.2156848470E+02      26  116    1      -0.1315711093E+07      0.1318178545E+07      0.1895950860E+07      0.6288188280E+02
          4                 2           0            26  116     1       0.1509793903E+02      26  116    1      -0.9106138158E+06      0.9166741534E+06      0.1318178545E+07      0.6288188280E+02
          5                 2           0            26  116     1       0.1056855714E+02      26  116    1      -0.6272371416E+06      0.6390910329E+06      0.9166741534E+06      0.6288188280E+02
          6                 2           0            26  116     1       0.7397989873E+01      26  116    1      -0.4290399978E+06      0.4496685488E+06      0.6390910329E+06      0.6288188280E+02
          7                 2           0            26  116     1       0.5178592823E+01      26  116    1      -0.2903020086E+06      0.3236647190E+06      0.4496685488E+06      0.6288188280E+02
          8                 2           0            26  116     1       0.3625014914E+01      26  116    1      -0.1931854223E+06      0.2440092677E+06      0.3236647190E+06      0.6288188280E+02
                                                   Max.-Head-Change                        Max.-Flux-Residual
  Residual-Control   Outer-Iter.   Inner-Iter.     Column Row Layer    Max.-Head-Change    Column Row Layer    Max.-Flux-Residual            L2-New               L2-Old           Solver-Max-Delh
          9                 2           0            26  116     1       0.2537510397E+01      26  116    1      -0.1252038151E+06      0.1978727981E+06      0.2440092677E+06      0.6288188280E+02
          0                 3           2            40  100     1       0.2570798950E+01      12  125    1       0.1174517549E+06      0.1743649750E+06      0.1978727981E+06      0.2570798950E+01
          0                 4           2            40  100     1      -0.2220538489E+00      12  125    1      -0.1174535214E+05      0.1339672642E+05      0.1743649750E+06     -0.2220538489E+00
          0                 5           2            26   78     1       0.7250249619E-01      12  125    1      -0.5872673084E+03      0.6708011108E+03      0.1339672642E+05      0.7250249619E-01

    ------------------------------------------------
       NWT REQUIRED            5 OUTER ITERATIONS 
       AND A TOTAL OF         10 INNER ITERATIONS.
    ------------------------------------------------

 OUTPUT CONTROL FOR STRESS PERIOD    1   TIME STEP  259
    SAVE HEAD FOR ALL LAYERS
    SAVE DRAWDOWN FOR ALL LAYERS
    SAVE BUDGET
    PRINT BUDGET
 UBDSV1 SAVING "         STORAGE" ON UNIT   9 AT TIME STEP259, STRESS PERIOD   1
 UBDSV2 SAVING "   CONSTANT HEAD" ON UNIT   9 AT TIME STEP259, STRESS PERIOD   1
 UBDSV1 SAVING "FLOW RIGHT FACE " ON UNIT   9 AT TIME STEP259, STRESS PERIOD   1
 UBDSV1 SAVING "FLOW FRONT FACE " ON UNIT   9 AT TIME STEP259, STRESS PERIOD   1
 UBDSV4 SAVING "   RIVER LEAKAGE" ON UNIT   9 AT TIME STEP259, STRESS PERIOD   1
 UBDSV3 SAVING "        RECHARGE" ON UNIT   9 AT TIME STEP259, STRESS PERIOD   1

 HEAD WILL BE SAVED ON UNIT   37 AT END OF TIME STEP  259, STRESS PERIOD    1

 DRAWDOWN WILL BE SAVED ON UNIT   38 AT END OF TIME STEP  259, STRESS PERIOD    1
1
  VOLUMETRIC BUDGET FOR ENTIRE MODEL AT END OF TIME STEP  259, STRESS PERIOD   1
  ------------------------------------------------------------------------------

     CUMULATIVE VOLUMES      L**3       RATES FOR THIS TIME STEP      L**3/T
     ------------------                 ------------------------

           IN:                                      IN:
           ---                                      ---
             STORAGE =   223026992.0000               STORAGE =      769867.5000
       CONSTANT HEAD =           0.0000         CONSTANT HEAD =           0.0000
       RIVER LEAKAGE =  1123855360.0000         RIVER LEAKAGE =     3989711.2500
            RECHARGE =     3427140.2500              RECHARGE =      157313.9844

            TOTAL IN =  1350309504.0000              TOTAL IN =     4916893.0000

          OUT:                                     OUT:
          ----                                     ----
             STORAGE =  1339207040.0000               STORAGE =     4727734.0000
       CONSTANT HEAD =           0.0000         CONSTANT HEAD =           0.0000
       RIVER LEAKAGE =    11518549.0000         RIVER LEAKAGE =      189110.4688
            RECHARGE =           0.0000              RECHARGE =           0.0000

           TOTAL OUT =  1350725632.0000             TOTAL OUT =     4916844.5000

            IN - OUT =     -416128.0000              IN - OUT =          48.5000

 PERCENT DISCREPANCY =          -0.03     PERCENT DISCREPANCY =           0.00






         TIME SUMMARY AT END OF TIME STEP  259 IN STRESS PERIOD    1
                    SECONDS     MINUTES      HOURS       DAYS        YEARS
                    -----------------------------------------------------------
   TIME STEP LENGTH  86400.      1440.0      24.000      1.0000     2.73785E-03
 STRESS PERIOD TIME 2.23776E+07 3.72960E+05  6216.0      259.00     0.70910    
         TOTAL TIME 2.23776E+07 3.72960E+05  6216.0      259.00     0.70910    
1
 
 SOLVING FOR HEAD 
                                                   Max.-Head-Change                        Max.-Flux-Residual
  Residual-Control   Outer-Iter.   Inner-Iter.     Column Row Layer    Max.-Head-Change    Column Row Layer    Max.-Flux-Residual            L2-New               L2-Old           Solver-Max-Delh
          0                 1           2            40  100     1       0.3470102879E+02      36   74    1      -0.2604543001E+06      0.8533156139E+06      0.4982082255E+02      0.3470102879E+02
          0                 2           2            40  100     1      -0.2996379714E+01      36   74    1       0.2604545124E+05      0.8538989336E+05      0.8533156139E+06     -0.2996379714E+01
          0                 3           2            40  100     1      -0.1498151781E+00      36   74    1       0.1302272058E+04      0.4269502364E+04      0.8538989336E+05     -0.1498151781E+00

    ------------------------------------------------
       NWT REQUIRED            3 OUTER ITERATIONS 
       AND A TOTAL OF          6 INNER ITERATIONS.
    ------------------------------------------------

 OUTPUT CONTROL FOR STRESS PERIOD    1   TIME STEP  260
    SAVE HEAD FOR ALL LAYERS
    SAVE DRAWDOWN FOR ALL LAYERS
    SAVE BUDGET
    PRINT BUDGET
 UBDSV1 SAVING "         STORAGE" ON UNIT   9 AT TIME STEP260, STRESS PERIOD   1
 UBDSV2 SAVING "   CONSTANT HEAD" ON UNIT   9 AT TIME STEP260, STRESS PERIOD   1
 UBDSV1 SAVING "FLOW RIGHT FACE " ON UNIT   9 AT TIME STEP260, STRESS PERIOD   1
 UBDSV1 SAVING "FLOW FRONT FACE " ON UNIT   9 AT TIME STEP260, STRESS PERIOD   1
 UBDSV4 SAVING "   RIVER LEAKAGE" ON UNIT   9 AT TIME STEP260, STRESS PERIOD   1
 UBDSV3 SAVING "        RECHARGE" ON UNIT   9 AT TIME STEP260, STRESS PERIOD   1

 HEAD WILL BE SAVED ON UNIT   37 AT END OF TIME STEP  260, STRESS PERIOD    1

 DRAWDOWN WILL BE SAVED ON UNIT   38 AT END OF TIME STEP  260, STRESS PERIOD    1
1
  VOLUMETRIC BUDGET FOR ENTIRE MODEL AT END OF TIME STEP  260, STRESS PERIOD   1
  ------------------------------------------------------------------------------

     CUMULATIVE VOLUMES      L**3       RATES FOR THIS TIME STEP      L**3/T
     ------------------                 ------------------------

           IN:                                      IN:
           ---                                      ---
             STORAGE =   223802320.0000               STORAGE =      775324.8125
       CONSTANT HEAD =           0.0000         CONSTANT HEAD =           0.0000
       RIVER LEAKAGE =  1126548864.0000         RIVER LEAKAGE =     2693546.5000
            RECHARGE =     3516642.2500              RECHARGE =       89502.1016

            TOTAL IN =  1353867904.0000              TOTAL IN =     3558373.2500

          OUT:                                     OUT:
          ----                                     ----
             STORAGE =  1342577024.0000               STORAGE =     3370004.5000
       CONSTANT HEAD =           0.0000         CONSTANT HEAD =           0.0000
       RIVER LEAKAGE =    11706035.0000         RIVER LEAKAGE =      187486.2031
            RECHARGE =           0.0000              RECHARGE =           0.0000

           TOTAL OUT =  1354283008.0000             TOTAL OUT =     3557490.7500

            IN - OUT =     -415104.0000              IN - OUT =         882.5000

 PERCENT DISCREPANCY =          -0.03     PERCENT DISCREPANCY =           0.02






         TIME SUMMARY AT END OF TIME STEP  260 IN STRESS PERIOD    1
                    SECONDS     MINUTES      HOURS       DAYS        YEARS
                    -----------------------------------------------------------
   TIME STEP LENGTH  86400.      1440.0      24.000      1.0000     2.73785E-03
 STRESS PERIOD TIME 2.24640E+07 3.74400E+05  6240.0      260.00     0.71184    
         TOTAL TIME 2.24640E+07 3.74400E+05  6240.0      260.00     0.71184    
1
 
 SOLVING FOR HEAD 
                                                   Max.-Head-Change                        Max.-Flux-Residual
  Residual-Control   Outer-Iter.   Inner-Iter.     Column Row Layer    Max.-Head-Change    Column Row Layer    Max.-Flux-Residual            L2-New               L2-Old           Solver-Max-Delh
          0                 1           2            40  100     1       0.1296341005E+02      26  115    1      -0.2784039394E+06      0.7665192278E+06      0.2135094984E+03      0.1296341005E+02
          0                 2           2            66   15     1       0.6271777203E+01      26  115    1       0.2784040341E+05      0.7660131551E+05      0.7665192278E+06      0.6271777203E+01
          1                 2           0            66   15     1       0.4390243967E+01      66   15    1      -0.2133119577E+06      0.2133463345E+06      0.7660131551E+05      0.6271777203E+01
          2                 2           0            66   15     1       0.3073170725E+01      66   15    1      -0.1483982520E+06      0.1506002988E+06      0.2133463345E+06      0.6271777203E+01
          3                 2           0            66   15     1       0.2151219471E+01      66   15    1      -0.1029586586E+06      0.1107997818E+06      0.1506002988E+06      0.6271777203E+01
          4                 2           0            66   15     1       0.1505853604E+01      66   15    1      -0.7115094367E+05      0.8791370543E+05      0.1107997818E+06      0.6271777203E+01
          0                 3           2            66   15     1      -0.1346107923E+01      66   15    1      -0.4888554355E+05      0.7671697505E+05      0.8791370543E+05     -0.1346107923E+01
          0                 4           2            66   15     1      -0.6730607873E-01      66   15    1      -0.2444276209E+04      0.3835395218E+04      0.7671697505E+05     -0.6730607873E-01

    ------------------------------------------------
       NWT REQUIRED            4 OUTER ITERATIONS 
       AND A TOTAL OF          8 INNER ITERATIONS.
    ------------------------------------------------

 OUTPUT CONTROL FOR STRESS PERIOD    1   TIME STEP  261
    SAVE HEAD FOR ALL LAYERS
    SAVE DRAWDOWN FOR ALL LAYERS
    SAVE BUDGET
    PRINT BUDGET
 UBDSV1 SAVING "         STORAGE" ON UNIT   9 AT TIME STEP261, STRESS PERIOD   1
 UBDSV2 SAVING "   CONSTANT HEAD" ON UNIT   9 AT TIME STEP261, STRESS PERIOD   1
 UBDSV1 SAVING "FLOW RIGHT FACE " ON UNIT   9 AT TIME STEP261, STRESS PERIOD   1
 UBDSV1 SAVING "FLOW FRONT FACE " ON UNIT   9 AT TIME STEP261, STRESS PERIOD   1
 UBDSV4 SAVING "   RIVER LEAKAGE" ON UNIT   9 AT TIME STEP261, STRESS PERIOD   1
 UBDSV3 SAVING "        RECHARGE" ON UNIT   9 AT TIME STEP261, STRESS PERIOD   1

 HEAD WILL BE SAVED ON UNIT   37 AT END OF TIME STEP  261, STRESS PERIOD    1

 DRAWDOWN WILL BE SAVED ON UNIT   38 AT END OF TIME STEP  261, STRESS PERIOD    1
1
  VOLUMETRIC BUDGET FOR ENTIRE MODEL AT END OF TIME STEP  261, STRESS PERIOD   1
  ------------------------------------------------------------------------------

     CUMULATIVE VOLUMES      L**3       RATES FOR THIS TIME STEP      L**3/T
     ------------------                 ------------------------

           IN:                                      IN:
           ---                                      ---
             STORAGE =   224578336.0000               STORAGE =      776015.1875
       CONSTANT HEAD =           0.0000         CONSTANT HEAD =           0.0000
       RIVER LEAKAGE =  1128421120.0000         RIVER LEAKAGE =     1872192.1250
            RECHARGE =     3579318.2500              RECHARGE =       62675.9648

            TOTAL IN =  1356578688.0000              TOTAL IN =     2710883.2500

          OUT:                                     OUT:
          ----                                     ----
             STORAGE =  1345100288.0000               STORAGE =     2523279.5000
       CONSTANT HEAD =           0.0000         CONSTANT HEAD =           0.0000
       RIVER LEAKAGE =    11893097.0000         RIVER LEAKAGE =      187062.0156
            RECHARGE =           0.0000              RECHARGE =           0.0000

           TOTAL OUT =  1356993408.0000             TOTAL OUT =     2710341.5000

            IN - OUT =     -414720.0000              IN - OUT =         541.7500

 PERCENT DISCREPANCY =          -0.03     PERCENT DISCREPANCY =           0.02






         TIME SUMMARY AT END OF TIME STEP  261 IN STRESS PERIOD    1
                    SECONDS     MINUTES      HOURS       DAYS        YEARS
                    -----------------------------------------------------------
   TIME STEP LENGTH  86400.      1440.0      24.000      1.0000     2.73785E-03
 STRESS PERIOD TIME 2.25504E+07 3.75840E+05  6264.0      261.00     0.71458    
         TOTAL TIME 2.25504E+07 3.75840E+05  6264.0      261.00     0.71458    
1
 
 SOLVING FOR HEAD 
                                                   Max.-Head-Change                        Max.-Flux-Residual
  Residual-Control   Outer-Iter.   Inner-Iter.     Column Row Layer    Max.-Head-Change    Column Row Layer    Max.-Flux-Residual            L2-New               L2-Old           Solver-Max-Delh
          0                 1           2            40  100     1       0.4852971910E+01      38   81    1       0.7186705716E+05      0.3124460487E+06      0.1917607725E+03      0.4852971910E+01
          0                 2           2            63   17     1       0.2354458928E+02       4  129    1       0.1533653561E+05      0.3470641872E+05      0.3124460487E+06      0.2354458928E+02
          1                 2           0            63   17     1       0.1648121222E+02      63   17    1      -0.1907193391E+07      0.2235412640E+07      0.3470641872E+05      0.2354458928E+02
          2                 2           0            63   17     1       0.1153684836E+02      63   17    1      -0.1333920924E+07      0.1560830782E+07      0.2235412640E+07      0.2354458928E+02
          3                 2           0            63   17     1       0.8075793712E+01      63   17    1      -0.9326302041E+06      0.1088708955E+07      0.1560830782E+07      0.2354458928E+02
          4                 2           0            63   17     1       0.5653055502E+01      63   17    1      -0.6517267050E+06      0.7584380065E+06      0.1088708955E+07      0.2354458928E+02
          5                 2           0            63   17     1       0.3957138784E+01      63   17    1      -0.4550942589E+06      0.5274645388E+06      0.7584380065E+06      0.2354458928E+02
          6                 2           0            63   17     1       0.2769997102E+01      63   17    1      -0.3174515490E+06      0.3660382533E+06      0.5274645388E+06      0.2354458928E+02
          7                 2           0            63   17     1       0.1938997938E+01      63   17    1      -0.2211016537E+06      0.2534024027E+06      0.3660382533E+06      0.2354458928E+02
          8                 2           0            63   17     1       0.1357298534E+01      63   17    1      -0.1536567282E+06      0.1751114242E+06      0.2534024027E+06      0.2354458928E+02
                                                   Max.-Head-Change                        Max.-Flux-Residual
  Residual-Control   Outer-Iter.   Inner-Iter.     Column Row Layer    Max.-Head-Change    Column Row Layer    Max.-Flux-Residual            L2-New               L2-Old           Solver-Max-Delh
          9                 2           0            63   17     1       0.9501089573E+00      63   17    1      -0.1064452811E+06      0.1211305155E+06      0.1751114242E+06      0.2354458928E+02
         10                 2           0            63   17     1       0.6650762588E+00      63   17    1      -0.7339726870E+05      0.8455797905E+05      0.1211305155E+06      0.2354458928E+02
         11                 2           0            63   17     1       0.4655533732E+00      63   17    1      -0.5026366042E+05      0.6068995475E+05      0.8455797905E+05      0.2354458928E+02
         12                 2           0            63   17     1       0.3258873557E+00      63   17    1      -0.3407013490E+05      0.4623889671E+05      0.6068995475E+05      0.2354458928E+02
         13                 2           0            63   17     1       0.2281211451E+00      63   17    1      -0.2273466723E+05      0.3857864450E+05      0.4623889671E+05      0.2354458928E+02
          0                 3           2            40  100     1      -0.4153328188E+00      63   17    1      -0.1479983999E+05      0.3528677019E+05      0.3857864450E+05     -0.4153328188E+00
          0                 4           2            63   17     1      -0.2662241793E-01      63   17    1      -0.2626969711E+04      0.3207412967E+04      0.3528677019E+05     -0.2662241793E-01

    ------------------------------------------------
       NWT REQUIRED            4 OUTER ITERATIONS 
       AND A TOTAL OF          8 INNER ITERATIONS.
    ------------------------------------------------

 OUTPUT CONTROL FOR STRESS PERIOD    1   TIME STEP  262
    SAVE HEAD FOR ALL LAYERS
    SAVE DRAWDOWN FOR ALL LAYERS
    SAVE BUDGET
    PRINT BUDGET
 UBDSV1 SAVING "         STORAGE" ON UNIT   9 AT TIME STEP262, STRESS PERIOD   1
 UBDSV2 SAVING "   CONSTANT HEAD" ON UNIT   9 AT TIME STEP262, STRESS PERIOD   1
 UBDSV1 SAVING "FLOW RIGHT FACE " ON UNIT   9 AT TIME STEP262, STRESS PERIOD   1
 UBDSV1 SAVING "FLOW FRONT FACE " ON UNIT   9 AT TIME STEP262, STRESS PERIOD   1
 UBDSV4 SAVING "   RIVER LEAKAGE" ON UNIT   9 AT TIME STEP262, STRESS PERIOD   1
 UBDSV3 SAVING "        RECHARGE" ON UNIT   9 AT TIME STEP262, STRESS PERIOD   1

 HEAD WILL BE SAVED ON UNIT   37 AT END OF TIME STEP  262, STRESS PERIOD    1

 DRAWDOWN WILL BE SAVED ON UNIT   38 AT END OF TIME STEP  262, STRESS PERIOD    1
1
  VOLUMETRIC BUDGET FOR ENTIRE MODEL AT END OF TIME STEP  262, STRESS PERIOD   1
  ------------------------------------------------------------------------------

     CUMULATIVE VOLUMES      L**3       RATES FOR THIS TIME STEP      L**3/T
     ------------------                 ------------------------

           IN:                                      IN:
           ---                                      ---
             STORAGE =   225351344.0000               STORAGE =      773015.4375
       CONSTANT HEAD =           0.0000         CONSTANT HEAD =           0.0000
       RIVER LEAKAGE =  1130035328.0000         RIVER LEAKAGE =     1614187.5000
            RECHARGE =     3633774.5000              RECHARGE =       54456.3398

            TOTAL IN =  1359020416.0000              TOTAL IN =     2441659.2500

          OUT:                                     OUT:
          ----                                     ----
             STORAGE =  1347357056.0000               STORAGE =     2256733.0000
       CONSTANT HEAD =           0.0000         CONSTANT HEAD =           0.0000
       RIVER LEAKAGE =    12078581.0000         RIVER LEAKAGE =      185484.4375
            RECHARGE =           0.0000              RECHARGE =           0.0000

           TOTAL OUT =  1359435648.0000             TOTAL OUT =     2442217.5000

            IN - OUT =     -415232.0000              IN - OUT =        -558.2500

 PERCENT DISCREPANCY =          -0.03     PERCENT DISCREPANCY =          -0.02






         TIME SUMMARY AT END OF TIME STEP  262 IN STRESS PERIOD    1
                    SECONDS     MINUTES      HOURS       DAYS        YEARS
                    -----------------------------------------------------------
   TIME STEP LENGTH  86400.      1440.0      24.000      1.0000     2.73785E-03
 STRESS PERIOD TIME 2.26368E+07 3.77280E+05  6288.0      262.00     0.71732    
         TOTAL TIME 2.26368E+07 3.77280E+05  6288.0      262.00     0.71732    
1
 
 SOLVING FOR HEAD 
                                                   Max.-Head-Change                        Max.-Flux-Residual
  Residual-Control   Outer-Iter.   Inner-Iter.     Column Row Layer    Max.-Head-Change    Column Row Layer    Max.-Flux-Residual            L2-New               L2-Old           Solver-Max-Delh
          0                 1           2            40  100     1       0.1820668870E+01      38   81    1       0.9506268299E+05      0.3980857900E+06      0.4805637504E+03      0.1820668870E+01
          0                 2           2            40  100     1      -0.1572698270E+00      38   81    1      -0.9506357470E+04      0.3980879799E+05      0.3980857900E+06     -0.1572698270E+00
          0                 3           2            35   79     1       0.2356357071E-01      38   81    1      -0.4753182971E+03      0.1990444673E+04      0.3980879799E+05      0.2356357071E-01

    ------------------------------------------------
       NWT REQUIRED            3 OUTER ITERATIONS 
       AND A TOTAL OF          6 INNER ITERATIONS.
    ------------------------------------------------

 OUTPUT CONTROL FOR STRESS PERIOD    1   TIME STEP  263
    SAVE HEAD FOR ALL LAYERS
    SAVE DRAWDOWN FOR ALL LAYERS
    SAVE BUDGET
    PRINT BUDGET
 UBDSV1 SAVING "         STORAGE" ON UNIT   9 AT TIME STEP263, STRESS PERIOD   1
 UBDSV2 SAVING "   CONSTANT HEAD" ON UNIT   9 AT TIME STEP263, STRESS PERIOD   1
 UBDSV1 SAVING "FLOW RIGHT FACE " ON UNIT   9 AT TIME STEP263, STRESS PERIOD   1
 UBDSV1 SAVING "FLOW FRONT FACE " ON UNIT   9 AT TIME STEP263, STRESS PERIOD   1
 UBDSV4 SAVING "   RIVER LEAKAGE" ON UNIT   9 AT TIME STEP263, STRESS PERIOD   1
 UBDSV3 SAVING "        RECHARGE" ON UNIT   9 AT TIME STEP263, STRESS PERIOD   1

 HEAD WILL BE SAVED ON UNIT   37 AT END OF TIME STEP  263, STRESS PERIOD    1

 DRAWDOWN WILL BE SAVED ON UNIT   38 AT END OF TIME STEP  263, STRESS PERIOD    1
1
  VOLUMETRIC BUDGET FOR ENTIRE MODEL AT END OF TIME STEP  263, STRESS PERIOD   1
  ------------------------------------------------------------------------------

     CUMULATIVE VOLUMES      L**3       RATES FOR THIS TIME STEP      L**3/T
     ------------------                 ------------------------

           IN:                                      IN:
           ---                                      ---
             STORAGE =   226123808.0000               STORAGE =      772465.2500
       CONSTANT HEAD =           0.0000         CONSTANT HEAD =           0.0000
       RIVER LEAKAGE =  1131919488.0000         RIVER LEAKAGE =     1884204.6250
            RECHARGE =     3686930.7500              RECHARGE =       53156.2422

            TOTAL IN =  1361730176.0000              TOTAL IN =     2709826.0000

          OUT:                                     OUT:
          ----                                     ----
             STORAGE =  1349881216.0000               STORAGE =     2524190.5000
       CONSTANT HEAD =           0.0000         CONSTANT HEAD =           0.0000
       RIVER LEAKAGE =    12264720.0000         RIVER LEAKAGE =      186139.1094
            RECHARGE =           0.0000              RECHARGE =           0.0000

           TOTAL OUT =  1362145920.0000             TOTAL OUT =     2710329.5000

            IN - OUT =     -415744.0000              IN - OUT =        -503.5000

 PERCENT DISCREPANCY =          -0.03     PERCENT DISCREPANCY =          -0.02






         TIME SUMMARY AT END OF TIME STEP  263 IN STRESS PERIOD    1
                    SECONDS     MINUTES      HOURS       DAYS        YEARS
                    -----------------------------------------------------------
   TIME STEP LENGTH  86400.      1440.0      24.000      1.0000     2.73785E-03
 STRESS PERIOD TIME 2.27232E+07 3.78720E+05  6312.0      263.00     0.72005    
         TOTAL TIME 2.27232E+07 3.78720E+05  6312.0      263.00     0.72005    
1
 
 SOLVING FOR HEAD 
                                                   Max.-Head-Change                        Max.-Flux-Residual
  Residual-Control   Outer-Iter.   Inner-Iter.     Column Row Layer    Max.-Head-Change    Column Row Layer    Max.-Flux-Residual            L2-New               L2-Old           Solver-Max-Delh
          0                 1           2            40  100     1       0.6853774254E+00      26  115    1       0.1406721271E+06      0.6207999503E+06      0.9958545075E+02      0.6853774254E+00
          0                 2           2            14  125     1       0.1125672671E+03      14  125    1       0.2387932357E+05      0.6639387057E+05      0.6207999503E+06      0.1125672671E+03
          1                 2           0            14  125     1       0.7879708565E+02      14  125    1      -0.1503605609E+07      0.1504833861E+07      0.6639387057E+05      0.1125672671E+03
          2                 2           0            14  125     1       0.5515795902E+02      14  125    1      -0.1044429078E+07      0.1045466094E+07      0.1504833861E+07      0.1125672671E+03
          3                 2           0            14  125     1       0.3861057065E+02      14  125    1      -0.7230055124E+06      0.7243179363E+06      0.1045466094E+07      0.1125672671E+03
          4                 2           0            14  125     1       0.2702739900E+02      14  125    1      -0.4980090201E+06      0.5001179058E+06      0.7243179363E+06      0.1125672671E+03
          5                 2           0            14  125     1       0.1891917898E+02      14  125    1      -0.3405114782E+06      0.3440774731E+06      0.5001179058E+06      0.1125672671E+03
          6                 2           0            14  125     1       0.1324342506E+02      14  125    1      -0.2304475019E+06      0.2363831483E+06      0.3440774731E+06      0.1125672671E+03
          7                 2           0            14  125     1       0.9270397382E+01      14  125    1      -0.1537558646E+06      0.1633664305E+06      0.2363831483E+06      0.1125672671E+03
          8                 2           0            14  125     1       0.6489278057E+01      14  125    1      -0.1001790033E+06      0.1153244604E+06      0.1633664305E+06      0.1125672671E+03
                                                   Max.-Head-Change                        Max.-Flux-Residual
  Residual-Control   Outer-Iter.   Inner-Iter.     Column Row Layer    Max.-Head-Change    Column Row Layer    Max.-Flux-Residual            L2-New               L2-Old           Solver-Max-Delh
          9                 2           0            14  125     1       0.4542494563E+01      14  125    1      -0.6267520128E+05      0.8575767931E+05      0.1153244604E+06      0.1125672671E+03
          0                 3           2            14  125     1      -0.2565991593E+01      14  125    1      -0.3642254043E+05      0.6979820798E+05      0.8575767931E+05     -0.2565991593E+01
          0                 4           2            14  125     1      -0.1283008736E+00      14  125    1      -0.1821126222E+04      0.3489405197E+04      0.6979820798E+05     -0.1283008736E+00

    ------------------------------------------------
       NWT REQUIRED            4 OUTER ITERATIONS 
       AND A TOTAL OF          8 INNER ITERATIONS.
    ------------------------------------------------

 OUTPUT CONTROL FOR STRESS PERIOD    1   TIME STEP  264
    SAVE HEAD FOR ALL LAYERS
    SAVE DRAWDOWN FOR ALL LAYERS
    SAVE BUDGET
    PRINT BUDGET
 UBDSV1 SAVING "         STORAGE" ON UNIT   9 AT TIME STEP264, STRESS PERIOD   1
 UBDSV2 SAVING "   CONSTANT HEAD" ON UNIT   9 AT TIME STEP264, STRESS PERIOD   1
 UBDSV1 SAVING "FLOW RIGHT FACE " ON UNIT   9 AT TIME STEP264, STRESS PERIOD   1
 UBDSV1 SAVING "FLOW FRONT FACE " ON UNIT   9 AT TIME STEP264, STRESS PERIOD   1
 UBDSV4 SAVING "   RIVER LEAKAGE" ON UNIT   9 AT TIME STEP264, STRESS PERIOD   1
 UBDSV3 SAVING "        RECHARGE" ON UNIT   9 AT TIME STEP264, STRESS PERIOD   1

 HEAD WILL BE SAVED ON UNIT   37 AT END OF TIME STEP  264, STRESS PERIOD    1

 DRAWDOWN WILL BE SAVED ON UNIT   38 AT END OF TIME STEP  264, STRESS PERIOD    1
1
  VOLUMETRIC BUDGET FOR ENTIRE MODEL AT END OF TIME STEP  264, STRESS PERIOD   1
  ------------------------------------------------------------------------------

     CUMULATIVE VOLUMES      L**3       RATES FOR THIS TIME STEP      L**3/T
     ------------------                 ------------------------

           IN:                                      IN:
           ---                                      ---
             STORAGE =   226893616.0000               STORAGE =      769814.5625
       CONSTANT HEAD =           0.0000         CONSTANT HEAD =           0.0000
       RIVER LEAKAGE =  1134274688.0000         RIVER LEAKAGE =     2355234.7500
            RECHARGE =     3740539.5000              RECHARGE =       53608.8633

            TOTAL IN =  1364908800.0000              TOTAL IN =     3178658.0000

          OUT:                                     OUT:
          ----                                     ----
             STORAGE =  1352880000.0000               STORAGE =     2998763.5000
       CONSTANT HEAD =           0.0000         CONSTANT HEAD =           0.0000
       RIVER LEAKAGE =    12446274.0000         RIVER LEAKAGE =      181553.7188
            RECHARGE =           0.0000              RECHARGE =           0.0000

           TOTAL OUT =  1365326336.0000             TOTAL OUT =     3180317.2500

            IN - OUT =     -417536.0000              IN - OUT =       -1659.2500

 PERCENT DISCREPANCY =          -0.03     PERCENT DISCREPANCY =          -0.05






         TIME SUMMARY AT END OF TIME STEP  264 IN STRESS PERIOD    1
                    SECONDS     MINUTES      HOURS       DAYS        YEARS
                    -----------------------------------------------------------
   TIME STEP LENGTH  86400.      1440.0      24.000      1.0000     2.73785E-03
 STRESS PERIOD TIME 2.28096E+07 3.80160E+05  6336.0      264.00     0.72279    
         TOTAL TIME 2.28096E+07 3.80160E+05  6336.0      264.00     0.72279    
1
 
 SOLVING FOR HEAD 
                                                   Max.-Head-Change                        Max.-Flux-Residual
  Residual-Control   Outer-Iter.   Inner-Iter.     Column Row Layer    Max.-Head-Change    Column Row Layer    Max.-Flux-Residual            L2-New               L2-Old           Solver-Max-Delh
          0                 1           2            14  125     1       0.1574424670E+01      38   81    1       0.9520767696E+05      0.4873728934E+06      0.1744678503E+03      0.1574424670E+01
          0                 2           2            14  125     1      -0.1359730630E+00      38   81    1      -0.9521039972E+04      0.4873715020E+05      0.4873728934E+06     -0.1359730630E+00
          0                 3           2            59   48     1       0.3410575690E+00      38   81    1      -0.4760537875E+03      0.2437417821E+04      0.4873715020E+05      0.3410575690E+00

    ------------------------------------------------
       NWT REQUIRED            3 OUTER ITERATIONS 
       AND A TOTAL OF          6 INNER ITERATIONS.
    ------------------------------------------------

 OUTPUT CONTROL FOR STRESS PERIOD    1   TIME STEP  265
    SAVE HEAD FOR ALL LAYERS
    SAVE DRAWDOWN FOR ALL LAYERS
    SAVE BUDGET
    PRINT BUDGET
 UBDSV1 SAVING "         STORAGE" ON UNIT   9 AT TIME STEP265, STRESS PERIOD   1
 UBDSV2 SAVING "   CONSTANT HEAD" ON UNIT   9 AT TIME STEP265, STRESS PERIOD   1
 UBDSV1 SAVING "FLOW RIGHT FACE " ON UNIT   9 AT TIME STEP265, STRESS PERIOD   1
 UBDSV1 SAVING "FLOW FRONT FACE " ON UNIT   9 AT TIME STEP265, STRESS PERIOD   1
 UBDSV4 SAVING "   RIVER LEAKAGE" ON UNIT   9 AT TIME STEP265, STRESS PERIOD   1
 UBDSV3 SAVING "        RECHARGE" ON UNIT   9 AT TIME STEP265, STRESS PERIOD   1

 HEAD WILL BE SAVED ON UNIT   37 AT END OF TIME STEP  265, STRESS PERIOD    1

 DRAWDOWN WILL BE SAVED ON UNIT   38 AT END OF TIME STEP  265, STRESS PERIOD    1
1
  VOLUMETRIC BUDGET FOR ENTIRE MODEL AT END OF TIME STEP  265, STRESS PERIOD   1
  ------------------------------------------------------------------------------

     CUMULATIVE VOLUMES      L**3       RATES FOR THIS TIME STEP      L**3/T
     ------------------                 ------------------------

           IN:                                      IN:
           ---                                      ---
             STORAGE =   227667856.0000               STORAGE =      774234.6250
       CONSTANT HEAD =           0.0000         CONSTANT HEAD =           0.0000
       RIVER LEAKAGE =  1136205952.0000         RIVER LEAKAGE =     1931232.0000
            RECHARGE =     3794385.2500              RECHARGE =       53845.8281

            TOTAL IN =  1367668224.0000              TOTAL IN =     2759312.5000

          OUT:                                     OUT:
          ----                                     ----
             STORAGE =  1355449856.0000               STORAGE =     2569896.5000
       CONSTANT HEAD =           0.0000         CONSTANT HEAD =           0.0000
       RIVER LEAKAGE =    12635593.0000         RIVER LEAKAGE =      189318.6094
            RECHARGE =           0.0000              RECHARGE =           0.0000

           TOTAL OUT =  1368085504.0000             TOTAL OUT =     2759215.0000

            IN - OUT =     -417280.0000              IN - OUT =          97.5000

 PERCENT DISCREPANCY =          -0.03     PERCENT DISCREPANCY =           0.00






         TIME SUMMARY AT END OF TIME STEP  265 IN STRESS PERIOD    1
                    SECONDS     MINUTES      HOURS       DAYS        YEARS
                    -----------------------------------------------------------
   TIME STEP LENGTH  86400.      1440.0      24.000      1.0000     2.73785E-03
 STRESS PERIOD TIME 2.28960E+07 3.81600E+05  6360.0      265.00     0.72553    
         TOTAL TIME 2.28960E+07 3.81600E+05  6360.0      265.00     0.72553    
1
 
 SOLVING FOR HEAD 
                                                   Max.-Head-Change                        Max.-Flux-Residual
  Residual-Control   Outer-Iter.   Inner-Iter.     Column Row Layer    Max.-Head-Change    Column Row Layer    Max.-Flux-Residual            L2-New               L2-Old           Solver-Max-Delh
          0                 1           2            40   69     1      -0.4710828927E+00      26  115    1      -0.1504006325E+06      0.5273537153E+06      0.3064051788E+03     -0.4710828927E+00
          0                 2           2            40   69     1       0.4068443328E-01      26  115    1       0.1504006835E+05      0.5273556604E+05      0.5273537153E+06      0.4068443328E-01
          0                 3           2            35   79     1       0.2335279775E-01      26  115    1       0.7520030725E+03      0.2636781047E+04      0.5273556604E+05      0.2335279775E-01

    ------------------------------------------------
       NWT REQUIRED            3 OUTER ITERATIONS 
       AND A TOTAL OF          6 INNER ITERATIONS.
    ------------------------------------------------

 OUTPUT CONTROL FOR STRESS PERIOD    1   TIME STEP  266
    SAVE HEAD FOR ALL LAYERS
    SAVE DRAWDOWN FOR ALL LAYERS
    SAVE BUDGET
    PRINT BUDGET
 UBDSV1 SAVING "         STORAGE" ON UNIT   9 AT TIME STEP266, STRESS PERIOD   1
 UBDSV2 SAVING "   CONSTANT HEAD" ON UNIT   9 AT TIME STEP266, STRESS PERIOD   1
 UBDSV1 SAVING "FLOW RIGHT FACE " ON UNIT   9 AT TIME STEP266, STRESS PERIOD   1
 UBDSV1 SAVING "FLOW FRONT FACE " ON UNIT   9 AT TIME STEP266, STRESS PERIOD   1
 UBDSV4 SAVING "   RIVER LEAKAGE" ON UNIT   9 AT TIME STEP266, STRESS PERIOD   1
 UBDSV3 SAVING "        RECHARGE" ON UNIT   9 AT TIME STEP266, STRESS PERIOD   1

 HEAD WILL BE SAVED ON UNIT   37 AT END OF TIME STEP  266, STRESS PERIOD    1

 DRAWDOWN WILL BE SAVED ON UNIT   38 AT END OF TIME STEP  266, STRESS PERIOD    1
1
  VOLUMETRIC BUDGET FOR ENTIRE MODEL AT END OF TIME STEP  266, STRESS PERIOD   1
  ------------------------------------------------------------------------------

     CUMULATIVE VOLUMES      L**3       RATES FOR THIS TIME STEP      L**3/T
     ------------------                 ------------------------

           IN:                                      IN:
           ---                                      ---
             STORAGE =   228443440.0000               STORAGE =      775588.2500
       CONSTANT HEAD =           0.0000         CONSTANT HEAD =           0.0000
       RIVER LEAKAGE =  1137483136.0000         RIVER LEAKAGE =     1277231.6250
            RECHARGE =     3847708.0000              RECHARGE =       53322.7539

            TOTAL IN =  1369774208.0000              TOTAL IN =     2106142.5000

          OUT:                                     OUT:
          ----                                     ----
             STORAGE =  1357363712.0000               STORAGE =     1913889.5000
       CONSTANT HEAD =           0.0000         CONSTANT HEAD =           0.0000
       RIVER LEAKAGE =    12826986.0000         RIVER LEAKAGE =      191392.8438
            RECHARGE =           0.0000              RECHARGE =           0.0000

           TOTAL OUT =  1370190720.0000             TOTAL OUT =     2105282.2500

            IN - OUT =     -416512.0000              IN - OUT =         860.2500

 PERCENT DISCREPANCY =          -0.03     PERCENT DISCREPANCY =           0.04






         TIME SUMMARY AT END OF TIME STEP  266 IN STRESS PERIOD    1
                    SECONDS     MINUTES      HOURS       DAYS        YEARS
                    -----------------------------------------------------------
   TIME STEP LENGTH  86400.      1440.0      24.000      1.0000     2.73785E-03
 STRESS PERIOD TIME 2.29824E+07 3.83040E+05  6384.0      266.00     0.72827    
         TOTAL TIME 2.29824E+07 3.83040E+05  6384.0      266.00     0.72827    
1
 
 SOLVING FOR HEAD 
                                                   Max.-Head-Change                        Max.-Flux-Residual
  Residual-Control   Outer-Iter.   Inner-Iter.     Column Row Layer    Max.-Head-Change    Column Row Layer    Max.-Flux-Residual            L2-New               L2-Old           Solver-Max-Delh
          0                 1           2            38   71     1       0.5581389012E+00      36   74    1       0.1275698422E+06      0.5754261087E+06      0.1318739427E+03      0.5581389012E+00
          0                 2           2            38   71     1      -0.4820290705E-01      36   74    1      -0.1275699392E+05      0.5754254407E+05      0.5754261087E+06     -0.4820290705E-01
          0                 3           2            35   79     1       0.2328200215E-01      36   74    1      -0.6378494442E+03      0.2877129703E+04      0.5754254407E+05      0.2328200215E-01

    ------------------------------------------------
       NWT REQUIRED            3 OUTER ITERATIONS 
       AND A TOTAL OF          6 INNER ITERATIONS.
    ------------------------------------------------

 OUTPUT CONTROL FOR STRESS PERIOD    1   TIME STEP  267
    SAVE HEAD FOR ALL LAYERS
    SAVE DRAWDOWN FOR ALL LAYERS
    SAVE BUDGET
    PRINT BUDGET
 UBDSV1 SAVING "         STORAGE" ON UNIT   9 AT TIME STEP267, STRESS PERIOD   1
 UBDSV2 SAVING "   CONSTANT HEAD" ON UNIT   9 AT TIME STEP267, STRESS PERIOD   1
 UBDSV1 SAVING "FLOW RIGHT FACE " ON UNIT   9 AT TIME STEP267, STRESS PERIOD   1
 UBDSV1 SAVING "FLOW FRONT FACE " ON UNIT   9 AT TIME STEP267, STRESS PERIOD   1
 UBDSV4 SAVING "   RIVER LEAKAGE" ON UNIT   9 AT TIME STEP267, STRESS PERIOD   1
 UBDSV3 SAVING "        RECHARGE" ON UNIT   9 AT TIME STEP267, STRESS PERIOD   1

 HEAD WILL BE SAVED ON UNIT   37 AT END OF TIME STEP  267, STRESS PERIOD    1

 DRAWDOWN WILL BE SAVED ON UNIT   38 AT END OF TIME STEP  267, STRESS PERIOD    1
1
  VOLUMETRIC BUDGET FOR ENTIRE MODEL AT END OF TIME STEP  267, STRESS PERIOD   1
  ------------------------------------------------------------------------------

     CUMULATIVE VOLUMES      L**3       RATES FOR THIS TIME STEP      L**3/T
     ------------------                 ------------------------

           IN:                                      IN:
           ---                                      ---
             STORAGE =   229212384.0000               STORAGE =      768940.1875
       CONSTANT HEAD =           0.0000         CONSTANT HEAD =           0.0000
       RIVER LEAKAGE =  1139338880.0000         RIVER LEAKAGE =     1855802.7500
            RECHARGE =     3899725.7500              RECHARGE =       52017.6953

            TOTAL IN =  1372451072.0000              TOTAL IN =     2676760.7500

          OUT:                                     OUT:
          ----                                     ----
             STORAGE =  1359859072.0000               STORAGE =     2495354.7500
       CONSTANT HEAD =           0.0000         CONSTANT HEAD =           0.0000
       RIVER LEAKAGE =    13009985.0000         RIVER LEAKAGE =      182998.6719
            RECHARGE =           0.0000              RECHARGE =           0.0000

           TOTAL OUT =  1372869120.0000             TOTAL OUT =     2678353.5000

            IN - OUT =     -418048.0000              IN - OUT =       -1592.7500

 PERCENT DISCREPANCY =          -0.03     PERCENT DISCREPANCY =          -0.06






         TIME SUMMARY AT END OF TIME STEP  267 IN STRESS PERIOD    1
                    SECONDS     MINUTES      HOURS       DAYS        YEARS
                    -----------------------------------------------------------
   TIME STEP LENGTH  86400.      1440.0      24.000      1.0000     2.73785E-03
 STRESS PERIOD TIME 2.30688E+07 3.84480E+05  6408.0      267.00     0.73101    
         TOTAL TIME 2.30688E+07 3.84480E+05  6408.0      267.00     0.73101    
1
 
 SOLVING FOR HEAD 
                                                   Max.-Head-Change                        Max.-Flux-Residual
  Residual-Control   Outer-Iter.   Inner-Iter.     Column Row Layer    Max.-Head-Change    Column Row Layer    Max.-Flux-Residual            L2-New               L2-Old           Solver-Max-Delh
          0                 1           2            59   48     1       0.3486093525E+00      26  115    1      -0.1269751056E+06      0.4402542014E+06      0.1438836665E+03      0.3486093525E+00
          0                 2           2            59   48     1      -0.3010716208E-01      26  115    1       0.1269751488E+05      0.4402558428E+05      0.4402542014E+06     -0.3010716208E-01
          0                 3           2            35   79     1       0.2321143476E-01      26  115    1       0.6348754532E+03      0.2201282935E+04      0.4402558428E+05      0.2321143476E-01

    ------------------------------------------------
       NWT REQUIRED            3 OUTER ITERATIONS 
       AND A TOTAL OF          6 INNER ITERATIONS.
    ------------------------------------------------

 OUTPUT CONTROL FOR STRESS PERIOD    1   TIME STEP  268
    SAVE HEAD FOR ALL LAYERS
    SAVE DRAWDOWN FOR ALL LAYERS
    SAVE BUDGET
    PRINT BUDGET
 UBDSV1 SAVING "         STORAGE" ON UNIT   9 AT TIME STEP268, STRESS PERIOD   1
 UBDSV2 SAVING "   CONSTANT HEAD" ON UNIT   9 AT TIME STEP268, STRESS PERIOD   1
 UBDSV1 SAVING "FLOW RIGHT FACE " ON UNIT   9 AT TIME STEP268, STRESS PERIOD   1
 UBDSV1 SAVING "FLOW FRONT FACE " ON UNIT   9 AT TIME STEP268, STRESS PERIOD   1
 UBDSV4 SAVING "   RIVER LEAKAGE" ON UNIT   9 AT TIME STEP268, STRESS PERIOD   1
 UBDSV3 SAVING "        RECHARGE" ON UNIT   9 AT TIME STEP268, STRESS PERIOD   1

 HEAD WILL BE SAVED ON UNIT   37 AT END OF TIME STEP  268, STRESS PERIOD    1

 DRAWDOWN WILL BE SAVED ON UNIT   38 AT END OF TIME STEP  268, STRESS PERIOD    1
1
  VOLUMETRIC BUDGET FOR ENTIRE MODEL AT END OF TIME STEP  268, STRESS PERIOD   1
  ------------------------------------------------------------------------------

     CUMULATIVE VOLUMES      L**3       RATES FOR THIS TIME STEP      L**3/T
     ------------------                 ------------------------

           IN:                                      IN:
           ---                                      ---
             STORAGE =   229985936.0000               STORAGE =      773556.0625
       CONSTANT HEAD =           0.0000         CONSTANT HEAD =           0.0000
       RIVER LEAKAGE =  1140819328.0000         RIVER LEAKAGE =     1480432.6250
            RECHARGE =     3949800.7500              RECHARGE =       50075.0547

            TOTAL IN =  1374755072.0000              TOTAL IN =     2304063.7500

          OUT:                                     OUT:
          ----                                     ----
             STORAGE =  1361972480.0000               STORAGE =     2113409.2500
       CONSTANT HEAD =           0.0000         CONSTANT HEAD =           0.0000
       RIVER LEAKAGE =    13200087.0000         RIVER LEAKAGE =      190102.2500
            RECHARGE =           0.0000              RECHARGE =           0.0000

           TOTAL OUT =  1375172608.0000             TOTAL OUT =     2303511.5000

            IN - OUT =     -417536.0000              IN - OUT =         552.2500

 PERCENT DISCREPANCY =          -0.03     PERCENT DISCREPANCY =           0.02






         TIME SUMMARY AT END OF TIME STEP  268 IN STRESS PERIOD    1
                    SECONDS     MINUTES      HOURS       DAYS        YEARS
                    -----------------------------------------------------------
   TIME STEP LENGTH  86400.      1440.0      24.000      1.0000     2.73785E-03
 STRESS PERIOD TIME 2.31552E+07 3.85920E+05  6432.0      268.00     0.73374    
         TOTAL TIME 2.31552E+07 3.85920E+05  6432.0      268.00     0.73374    
1
 
 SOLVING FOR HEAD 
                                                   Max.-Head-Change                        Max.-Flux-Residual
  Residual-Control   Outer-Iter.   Inner-Iter.     Column Row Layer    Max.-Head-Change    Column Row Layer    Max.-Flux-Residual            L2-New               L2-Old           Solver-Max-Delh
          0                 1           2            59   48     1       0.3470052619E+00      36   74    1      -0.5472790104E+05      0.2486876147E+06      0.1101150801E+03      0.3470052619E+00
          0                 2           2            59   48     1      -0.2996862705E-01      36   74    1       0.5472794535E+04      0.2486905585E+05      0.2486876147E+06     -0.2996862705E-01
          0                 3           2            35   79     1       0.2314112120E-01      36   74    1       0.2736396205E+03      0.1243459536E+04      0.2486905585E+05      0.2314112120E-01

    ------------------------------------------------
       NWT REQUIRED            3 OUTER ITERATIONS 
       AND A TOTAL OF          6 INNER ITERATIONS.
    ------------------------------------------------

 OUTPUT CONTROL FOR STRESS PERIOD    1   TIME STEP  269
    SAVE HEAD FOR ALL LAYERS
    SAVE DRAWDOWN FOR ALL LAYERS
    SAVE BUDGET
    PRINT BUDGET
 UBDSV1 SAVING "         STORAGE" ON UNIT   9 AT TIME STEP269, STRESS PERIOD   1
 UBDSV2 SAVING "   CONSTANT HEAD" ON UNIT   9 AT TIME STEP269, STRESS PERIOD   1
 UBDSV1 SAVING "FLOW RIGHT FACE " ON UNIT   9 AT TIME STEP269, STRESS PERIOD   1
 UBDSV1 SAVING "FLOW FRONT FACE " ON UNIT   9 AT TIME STEP269, STRESS PERIOD   1
 UBDSV4 SAVING "   RIVER LEAKAGE" ON UNIT   9 AT TIME STEP269, STRESS PERIOD   1
 UBDSV3 SAVING "        RECHARGE" ON UNIT   9 AT TIME STEP269, STRESS PERIOD   1

 HEAD WILL BE SAVED ON UNIT   37 AT END OF TIME STEP  269, STRESS PERIOD    1

 DRAWDOWN WILL BE SAVED ON UNIT   38 AT END OF TIME STEP  269, STRESS PERIOD    1
1
  VOLUMETRIC BUDGET FOR ENTIRE MODEL AT END OF TIME STEP  269, STRESS PERIOD   1
  ------------------------------------------------------------------------------

     CUMULATIVE VOLUMES      L**3       RATES FOR THIS TIME STEP      L**3/T
     ------------------                 ------------------------

           IN:                                      IN:
           ---                                      ---
             STORAGE =   230755712.0000               STORAGE =      769768.5000
       CONSTANT HEAD =           0.0000         CONSTANT HEAD =           0.0000
       RIVER LEAKAGE =  1142098944.0000         RIVER LEAKAGE =     1279566.7500
            RECHARGE =     3997470.7500              RECHARGE =       47670.0625

            TOTAL IN =  1376852096.0000              TOTAL IN =     2097005.2500

          OUT:                                     OUT:
          ----                                     ----
             STORAGE =  1363882112.0000               STORAGE =     1909568.1250
       CONSTANT HEAD =           0.0000         CONSTANT HEAD =           0.0000
       RIVER LEAKAGE =    13387577.0000         RIVER LEAKAGE =      187490.3438
            RECHARGE =           0.0000              RECHARGE =           0.0000

           TOTAL OUT =  1377269632.0000             TOTAL OUT =     2097058.5000

            IN - OUT =     -417536.0000              IN - OUT =         -53.2500

 PERCENT DISCREPANCY =          -0.03     PERCENT DISCREPANCY =          -0.00






         TIME SUMMARY AT END OF TIME STEP  269 IN STRESS PERIOD    1
                    SECONDS     MINUTES      HOURS       DAYS        YEARS
                    -----------------------------------------------------------
   TIME STEP LENGTH  86400.      1440.0      24.000      1.0000     2.73785E-03
 STRESS PERIOD TIME 2.32416E+07 3.87360E+05  6456.0      269.00     0.73648    
         TOTAL TIME 2.32416E+07 3.87360E+05  6456.0      269.00     0.73648    
1
 
 SOLVING FOR HEAD 
                                                   Max.-Head-Change                        Max.-Flux-Residual
  Residual-Control   Outer-Iter.   Inner-Iter.     Column Row Layer    Max.-Head-Change    Column Row Layer    Max.-Flux-Residual            L2-New               L2-Old           Solver-Max-Delh
          0                 1           2            37   79     1       0.7951591982E+00      26  115    1       0.2493438818E+06      0.8991420985E+06      0.6228929434E+02      0.7951591982E+00
          0                 2           2            37   79     1      -0.6867324031E-01      26  115    1      -0.2493439635E+05      0.8991409895E+05      0.8991420985E+06     -0.6867324031E-01
          0                 3           2            35   79     1       0.2307109685E-01      26  115    1      -0.1246719244E+04      0.4495707898E+04      0.8991409895E+05      0.2307109685E-01
          1                 3           0            35   79     1       0.1614976752E-01      35   79    1      -0.2010800846E+05      0.2010926823E+05      0.4495707898E+04      0.2307109685E-01
          2                 3           0            35   79     1       0.1130483707E-01      35   79    1      -0.1318052069E+05      0.1326628430E+05      0.2010926823E+05      0.2307109685E-01
          3                 3           0            35   79     1       0.7913385815E-02      35   79    1      -0.8331280749E+04      0.8670889985E+04      0.1326628430E+05      0.2307109685E-01
          4                 3           0            35   79     1       0.5539369976E-02      35   79    1      -0.4936813540E+04      0.5792897558E+04      0.8670889985E+04      0.2307109685E-01
          0                 4           2            57   15     1       0.1701531202E-01      35   79    1      -0.2560686873E+04      0.4312740913E+04      0.5792897558E+04      0.1701531202E-01

    ------------------------------------------------
       NWT REQUIRED            4 OUTER ITERATIONS 
       AND A TOTAL OF          8 INNER ITERATIONS.
    ------------------------------------------------

 OUTPUT CONTROL FOR STRESS PERIOD    1   TIME STEP  270
    SAVE HEAD FOR ALL LAYERS
    SAVE DRAWDOWN FOR ALL LAYERS
    SAVE BUDGET
    PRINT BUDGET
 UBDSV1 SAVING "         STORAGE" ON UNIT   9 AT TIME STEP270, STRESS PERIOD   1
 UBDSV2 SAVING "   CONSTANT HEAD" ON UNIT   9 AT TIME STEP270, STRESS PERIOD   1
 UBDSV1 SAVING "FLOW RIGHT FACE " ON UNIT   9 AT TIME STEP270, STRESS PERIOD   1
 UBDSV1 SAVING "FLOW FRONT FACE " ON UNIT   9 AT TIME STEP270, STRESS PERIOD   1
 UBDSV4 SAVING "   RIVER LEAKAGE" ON UNIT   9 AT TIME STEP270, STRESS PERIOD   1
 UBDSV3 SAVING "        RECHARGE" ON UNIT   9 AT TIME STEP270, STRESS PERIOD   1

 HEAD WILL BE SAVED ON UNIT   37 AT END OF TIME STEP  270, STRESS PERIOD    1

 DRAWDOWN WILL BE SAVED ON UNIT   38 AT END OF TIME STEP  270, STRESS PERIOD    1
1
  VOLUMETRIC BUDGET FOR ENTIRE MODEL AT END OF TIME STEP  270, STRESS PERIOD   1
  ------------------------------------------------------------------------------

     CUMULATIVE VOLUMES      L**3       RATES FOR THIS TIME STEP      L**3/T
     ------------------                 ------------------------

           IN:                                      IN:
           ---                                      ---
             STORAGE =   231523184.0000               STORAGE =      767466.9375
       CONSTANT HEAD =           0.0000         CONSTANT HEAD =           0.0000
       RIVER LEAKAGE =  1144759936.0000         RIVER LEAKAGE =     2661016.5000
            RECHARGE =     4042447.0000              RECHARGE =       44976.3359

            TOTAL IN =  1380325632.0000              TOTAL IN =     3473459.7500

          OUT:                                     OUT:
          ----                                     ----
             STORAGE =  1367176320.0000               STORAGE =     3294268.7500
       CONSTANT HEAD =           0.0000         CONSTANT HEAD =           0.0000
       RIVER LEAKAGE =    13568444.0000         RIVER LEAKAGE =      180866.7344
            RECHARGE =           0.0000              RECHARGE =           0.0000

           TOTAL OUT =  1380744704.0000             TOTAL OUT =     3475135.5000

            IN - OUT =     -419072.0000              IN - OUT =       -1675.7500

 PERCENT DISCREPANCY =          -0.03     PERCENT DISCREPANCY =          -0.05






         TIME SUMMARY AT END OF TIME STEP  270 IN STRESS PERIOD    1
                    SECONDS     MINUTES      HOURS       DAYS        YEARS
                    -----------------------------------------------------------
   TIME STEP LENGTH  86400.      1440.0      24.000      1.0000     2.73785E-03
 STRESS PERIOD TIME 2.33280E+07 3.88800E+05  6480.0      270.00     0.73922    
         TOTAL TIME 2.33280E+07 3.88800E+05  6480.0      270.00     0.73922    
1
 
 SOLVING FOR HEAD 
                                                   Max.-Head-Change                        Max.-Flux-Residual
  Residual-Control   Outer-Iter.   Inner-Iter.     Column Row Layer    Max.-Head-Change    Column Row Layer    Max.-Flux-Residual            L2-New               L2-Old           Solver-Max-Delh
          0                 1           2            59   48     1       0.3440842854E+00      34   98    1       0.1973715557E+06      0.5726989418E+06      0.2156081018E+03      0.3440842854E+00
          0                 2           2            41   54     1       0.2351023435E+02      34   98    1      -0.1973721698E+05      0.5746875491E+05      0.5726989418E+06      0.2351023435E+02
          1                 2           0            41   54     1       0.1645716377E+02      41   54    1      -0.1307868711E+07      0.1725199126E+07      0.5746875491E+05      0.2351023435E+02
          2                 2           0            41   54     1       0.1152001444E+02      41   54    1      -0.9135262397E+06      0.1205018396E+07      0.1725199126E+07      0.2351023435E+02
          3                 2           0            41   54     1       0.8064009971E+01      41   54    1      -0.6374865147E+06      0.8411908083E+06      0.1205018396E+07      0.2351023435E+02
          4                 2           0            41   54     1       0.5644806883E+01      41   54    1      -0.4442587104E+06      0.5869421244E+06      0.8411908083E+06      0.2351023435E+02
          5                 2           0            41   54     1       0.3951364751E+01      41   54    1      -0.3089992497E+06      0.4095891420E+06      0.5869421244E+06      0.2351023435E+02
          6                 2           0            41   54     1       0.2765955279E+01      41   54    1      -0.2143176289E+06      0.2863370505E+06      0.4095891420E+06      0.2351023435E+02
          7                 2           0            41   54     1       0.1936168662E+01      41   54    1      -0.1480404954E+06      0.2013417035E+06      0.2863370505E+06      0.2351023435E+02
          8                 2           0            41   54     1       0.1355318040E+01      41   54    1      -0.1016465027E+06      0.1436421966E+06      0.2013417035E+06      0.2351023435E+02
                                                   Max.-Head-Change                        Max.-Flux-Residual
  Residual-Control   Outer-Iter.   Inner-Iter.     Column Row Layer    Max.-Head-Change    Column Row Layer    Max.-Flux-Residual            L2-New               L2-Old           Solver-Max-Delh
          9                 2           0            41   54     1       0.9487226121E+00      41   54    1      -0.6917070840E+05      0.1056558052E+06      0.1436421966E+06      0.2351023435E+02
         10                 2           0            41   54     1       0.6641058172E+00      41   54    1      -0.4643765278E+05      0.8198465187E+05      0.1056558052E+06      0.2351023435E+02
         11                 2           0            41   54     1       0.4648740641E+00      41   54    1      -0.3052451411E+05      0.6844039028E+05      0.8198465187E+05      0.2351023435E+02
          0                 3           2            41   54     1      -0.3293830067E+00      41   54    1      -0.1938531723E+05      0.6150672378E+05      0.6844039028E+05     -0.3293830067E+00
          0                 4           2            57   15     1       0.1762600537E-01      41   54    1      -0.9692653786E+03      0.3074828534E+04      0.6150672378E+05      0.1762600537E-01

    ------------------------------------------------
       NWT REQUIRED            4 OUTER ITERATIONS 
       AND A TOTAL OF          8 INNER ITERATIONS.
    ------------------------------------------------

 OUTPUT CONTROL FOR STRESS PERIOD    1   TIME STEP  271
    SAVE HEAD FOR ALL LAYERS
    SAVE DRAWDOWN FOR ALL LAYERS
    SAVE BUDGET
    PRINT BUDGET
 UBDSV1 SAVING "         STORAGE" ON UNIT   9 AT TIME STEP271, STRESS PERIOD   1
 UBDSV2 SAVING "   CONSTANT HEAD" ON UNIT   9 AT TIME STEP271, STRESS PERIOD   1
 UBDSV1 SAVING "FLOW RIGHT FACE " ON UNIT   9 AT TIME STEP271, STRESS PERIOD   1
 UBDSV1 SAVING "FLOW FRONT FACE " ON UNIT   9 AT TIME STEP271, STRESS PERIOD   1
 UBDSV4 SAVING "   RIVER LEAKAGE" ON UNIT   9 AT TIME STEP271, STRESS PERIOD   1
 UBDSV3 SAVING "        RECHARGE" ON UNIT   9 AT TIME STEP271, STRESS PERIOD   1

 HEAD WILL BE SAVED ON UNIT   37 AT END OF TIME STEP  271, STRESS PERIOD    1

 DRAWDOWN WILL BE SAVED ON UNIT   38 AT END OF TIME STEP  271, STRESS PERIOD    1
1
  VOLUMETRIC BUDGET FOR ENTIRE MODEL AT END OF TIME STEP  271, STRESS PERIOD   1
  ------------------------------------------------------------------------------

     CUMULATIVE VOLUMES      L**3       RATES FOR THIS TIME STEP      L**3/T
     ------------------                 ------------------------

           IN:                                      IN:
           ---                                      ---
             STORAGE =   232289296.0000               STORAGE =      766107.2500
       CONSTANT HEAD =           0.0000         CONSTANT HEAD =           0.0000
       RIVER LEAKAGE =  1148299264.0000         RIVER LEAKAGE =     3539364.5000
            RECHARGE =     4085712.2500              RECHARGE =       43265.3164

            TOTAL IN =  1384674304.0000              TOTAL IN =     4348737.0000

          OUT:                                     OUT:
          ----                                     ----
             STORAGE =  1371341824.0000               STORAGE =     4165503.0000
       CONSTANT HEAD =           0.0000         CONSTANT HEAD =           0.0000
       RIVER LEAKAGE =    13752650.0000         RIVER LEAKAGE =      184206.3906
            RECHARGE =           0.0000              RECHARGE =           0.0000

           TOTAL OUT =  1385094528.0000             TOTAL OUT =     4349709.5000

            IN - OUT =     -420224.0000              IN - OUT =        -972.5000

 PERCENT DISCREPANCY =          -0.03     PERCENT DISCREPANCY =          -0.02






         TIME SUMMARY AT END OF TIME STEP  271 IN STRESS PERIOD    1
                    SECONDS     MINUTES      HOURS       DAYS        YEARS
                    -----------------------------------------------------------
   TIME STEP LENGTH  86400.      1440.0      24.000      1.0000     2.73785E-03
 STRESS PERIOD TIME 2.34144E+07 3.90240E+05  6504.0      271.00     0.74196    
         TOTAL TIME 2.34144E+07 3.90240E+05  6504.0      271.00     0.74196    
1
 
 SOLVING FOR HEAD 
                                                   Max.-Head-Change                        Max.-Flux-Residual
  Residual-Control   Outer-Iter.   Inner-Iter.     Column Row Layer    Max.-Head-Change    Column Row Layer    Max.-Flux-Residual            L2-New               L2-Old           Solver-Max-Delh
          0                 1           2            59   48     1       0.3427296010E+00      38   81    1       0.1352822981E+06      0.5265156314E+06      0.1537226560E+03      0.3427296010E+00
          0                 2           2            39   50     1       0.9511988468E+01      38   81    1      -0.1352870880E+05      0.5245035989E+05      0.5265156314E+06      0.9511988468E+01
          1                 2           0            39   50     1       0.6658391814E+01      39   50    1      -0.1585580749E+07      0.1865371530E+07      0.5245035989E+05      0.9511988468E+01
          2                 2           0            39   50     1       0.4660874191E+01      39   50    1      -0.1109271283E+07      0.1304579346E+07      0.1865371530E+07      0.9511988468E+01
          3                 2           0            39   50     1       0.3262611878E+01      39   50    1      -0.7758546617E+06      0.9122560415E+06      0.1304579346E+07      0.9511988468E+01
          4                 2           0            39   50     1       0.2283828276E+01      39   50    1      -0.5424630309E+06      0.6379610652E+06      0.9122560415E+06      0.9511988468E+01
          5                 2           0            39   50     1       0.1598679766E+01      39   50    1      -0.3790888921E+06      0.4464291871E+06      0.6379610652E+06      0.9511988468E+01
          6                 2           0            39   50     1       0.1119075817E+01      39   50    1      -0.2647269969E+06      0.3130350760E+06      0.4464291871E+06      0.9511988468E+01
          7                 2           0            39   50     1       0.7833530585E+00      39   50    1      -0.1846736716E+06      0.2206215194E+06      0.3130350760E+06      0.9511988468E+01
          8                 2           0            39   50     1       0.5483471316E+00      39   50    1      -0.1286363449E+06      0.1572741726E+06      0.2206215194E+06      0.9511988468E+01
                                                   Max.-Head-Change                        Max.-Flux-Residual
  Residual-Control   Outer-Iter.   Inner-Iter.     Column Row Layer    Max.-Head-Change    Column Row Layer    Max.-Flux-Residual            L2-New               L2-Old           Solver-Max-Delh
          9                 2           0            39   50     1       0.3838429856E+00      39   50    1      -0.8941021682E+05      0.1147340029E+06      0.1572741726E+06      0.9511988468E+01
         10                 2           0            39   50     1       0.2686900853E+00      39   50    1      -0.6195192765E+05      0.8720691378E+05      0.1147340029E+06      0.9511988468E+01
         11                 2           0            39   50     1       0.1880830565E+00      39   50    1      -0.4273112555E+05      0.7041992944E+05      0.8720691378E+05      0.9511988468E+01
         12                 2           0            39   50     1       0.1316581373E+00      39   50    1      -0.2927656432E+05      0.6096569574E+05      0.7041992944E+05      0.9511988468E+01
          0                 3           2            54   44     1       0.3257515211E+01      39   50    1      -0.1985837161E+05      0.5609155267E+05      0.6096569574E+05      0.3257515211E+01
          0                 4           2            54   44     1      -0.2815814197E+00      39   50    1      -0.3524860685E+04      0.4649080866E+04      0.5609155267E+05     -0.2815814197E+00
          0                 5           2            57   15     1       0.1776904955E-01      39   50    1      -0.6256274027E+03      0.6979898872E+03      0.4649080866E+04      0.1776904955E-01

    ------------------------------------------------
       NWT REQUIRED            5 OUTER ITERATIONS 
       AND A TOTAL OF         10 INNER ITERATIONS.
    ------------------------------------------------

 OUTPUT CONTROL FOR STRESS PERIOD    1   TIME STEP  272
    SAVE HEAD FOR ALL LAYERS
    SAVE DRAWDOWN FOR ALL LAYERS
    SAVE BUDGET
    PRINT BUDGET
 UBDSV1 SAVING "         STORAGE" ON UNIT   9 AT TIME STEP272, STRESS PERIOD   1
 UBDSV2 SAVING "   CONSTANT HEAD" ON UNIT   9 AT TIME STEP272, STRESS PERIOD   1
 UBDSV1 SAVING "FLOW RIGHT FACE " ON UNIT   9 AT TIME STEP272, STRESS PERIOD   1
 UBDSV1 SAVING "FLOW FRONT FACE " ON UNIT   9 AT TIME STEP272, STRESS PERIOD   1
 UBDSV4 SAVING "   RIVER LEAKAGE" ON UNIT   9 AT TIME STEP272, STRESS PERIOD   1
 UBDSV3 SAVING "        RECHARGE" ON UNIT   9 AT TIME STEP272, STRESS PERIOD   1

 HEAD WILL BE SAVED ON UNIT   37 AT END OF TIME STEP  272, STRESS PERIOD    1

 DRAWDOWN WILL BE SAVED ON UNIT   38 AT END OF TIME STEP  272, STRESS PERIOD    1
1
  VOLUMETRIC BUDGET FOR ENTIRE MODEL AT END OF TIME STEP  272, STRESS PERIOD   1
  ------------------------------------------------------------------------------

     CUMULATIVE VOLUMES      L**3       RATES FOR THIS TIME STEP      L**3/T
     ------------------                 ------------------------

           IN:                                      IN:
           ---                                      ---
             STORAGE =   233052624.0000               STORAGE =      763328.0000
       CONSTANT HEAD =           0.0000         CONSTANT HEAD =           0.0000
       RIVER LEAKAGE =  1151942528.0000         RIVER LEAKAGE =     3643303.2500
            RECHARGE =     4136982.7500              RECHARGE =       51270.4062

            TOTAL IN =  1389132160.0000              TOTAL IN =     4457902.0000

          OUT:                                     OUT:
          ----                                     ----
             STORAGE =  1375614208.0000               STORAGE =     4272365.5000
       CONSTANT HEAD =           0.0000         CONSTANT HEAD =           0.0000
       RIVER LEAKAGE =    13938410.0000         RIVER LEAKAGE =      185760.4531
            RECHARGE =           0.0000              RECHARGE =           0.0000

           TOTAL OUT =  1389552640.0000             TOTAL OUT =     4458126.0000

            IN - OUT =     -420480.0000              IN - OUT =        -224.0000

 PERCENT DISCREPANCY =          -0.03     PERCENT DISCREPANCY =          -0.01






         TIME SUMMARY AT END OF TIME STEP  272 IN STRESS PERIOD    1
                    SECONDS     MINUTES      HOURS       DAYS        YEARS
                    -----------------------------------------------------------
   TIME STEP LENGTH  86400.      1440.0      24.000      1.0000     2.73785E-03
 STRESS PERIOD TIME 2.35008E+07 3.91680E+05  6528.0      272.00     0.74470    
         TOTAL TIME 2.35008E+07 3.91680E+05  6528.0      272.00     0.74470    
1
 
 SOLVING FOR HEAD 
                                                   Max.-Head-Change                        Max.-Flux-Residual
  Residual-Control   Outer-Iter.   Inner-Iter.     Column Row Layer    Max.-Head-Change    Column Row Layer    Max.-Flux-Residual            L2-New               L2-Old           Solver-Max-Delh
          0                 1           2            54   44     1       0.4121005036E+01      34   98    1      -0.4162430422E+06      0.9209139119E+06      0.1219566927E+03      0.4121005036E+01
          0                 2           2            54   44     1      -0.3559059392E+00      34   98    1       0.4162439403E+05      0.9208967218E+05      0.9209139119E+06     -0.3559059392E+00
          0                 3           2            57   15     1       0.1796422493E-01      34   98    1       0.2081219312E+04      0.4604484276E+04      0.9208967218E+05      0.1796422493E-01

    ------------------------------------------------
       NWT REQUIRED            3 OUTER ITERATIONS 
       AND A TOTAL OF          6 INNER ITERATIONS.
    ------------------------------------------------

 OUTPUT CONTROL FOR STRESS PERIOD    1   TIME STEP  273
    SAVE HEAD FOR ALL LAYERS
    SAVE DRAWDOWN FOR ALL LAYERS
    SAVE BUDGET
    PRINT BUDGET
 UBDSV1 SAVING "         STORAGE" ON UNIT   9 AT TIME STEP273, STRESS PERIOD   1
 UBDSV2 SAVING "   CONSTANT HEAD" ON UNIT   9 AT TIME STEP273, STRESS PERIOD   1
 UBDSV1 SAVING "FLOW RIGHT FACE " ON UNIT   9 AT TIME STEP273, STRESS PERIOD   1
 UBDSV1 SAVING "FLOW FRONT FACE " ON UNIT   9 AT TIME STEP273, STRESS PERIOD   1
 UBDSV4 SAVING "   RIVER LEAKAGE" ON UNIT   9 AT TIME STEP273, STRESS PERIOD   1
 UBDSV3 SAVING "        RECHARGE" ON UNIT   9 AT TIME STEP273, STRESS PERIOD   1

 HEAD WILL BE SAVED ON UNIT   37 AT END OF TIME STEP  273, STRESS PERIOD    1

 DRAWDOWN WILL BE SAVED ON UNIT   38 AT END OF TIME STEP  273, STRESS PERIOD    1
1
  VOLUMETRIC BUDGET FOR ENTIRE MODEL AT END OF TIME STEP  273, STRESS PERIOD   1
  ------------------------------------------------------------------------------

     CUMULATIVE VOLUMES      L**3       RATES FOR THIS TIME STEP      L**3/T
     ------------------                 ------------------------

           IN:                                      IN:
           ---                                      ---
             STORAGE =   233824560.0000               STORAGE =      771941.6250
       CONSTANT HEAD =           0.0000         CONSTANT HEAD =           0.0000
       RIVER LEAKAGE =  1153292928.0000         RIVER LEAKAGE =     1350446.6250
            RECHARGE =     4191538.0000              RECHARGE =       54555.2773

            TOTAL IN =  1391308928.0000              TOTAL IN =     2176943.5000

          OUT:                                     OUT:
          ----                                     ----
             STORAGE =  1377596288.0000               STORAGE =     1982074.6250
       CONSTANT HEAD =           0.0000         CONSTANT HEAD =           0.0000
       RIVER LEAKAGE =    14131758.0000         RIVER LEAKAGE =      193347.5781
            RECHARGE =           0.0000              RECHARGE =           0.0000

           TOTAL OUT =  1391728000.0000             TOTAL OUT =     2175422.2500

            IN - OUT =     -419072.0000              IN - OUT =        1521.2500

 PERCENT DISCREPANCY =          -0.03     PERCENT DISCREPANCY =           0.07






         TIME SUMMARY AT END OF TIME STEP  273 IN STRESS PERIOD    1
                    SECONDS     MINUTES      HOURS       DAYS        YEARS
                    -----------------------------------------------------------
   TIME STEP LENGTH  86400.      1440.0      24.000      1.0000     2.73785E-03
 STRESS PERIOD TIME 2.35872E+07 3.93120E+05  6552.0      273.00     0.74743    
         TOTAL TIME 2.35872E+07 3.93120E+05  6552.0      273.00     0.74743    
1
 
 SOLVING FOR HEAD 
                                                   Max.-Head-Change                        Max.-Flux-Residual
  Residual-Control   Outer-Iter.   Inner-Iter.     Column Row Layer    Max.-Head-Change    Column Row Layer    Max.-Flux-Residual            L2-New               L2-Old           Solver-Max-Delh
          0                 1           2            54   44     1       0.3782444546E+01      26  115    1       0.1820139441E+06      0.6535899908E+06      0.2302031337E+03      0.3782444546E+01
          0                 2           2            54   44     1      -0.3266664673E+00      26  115    1      -0.1820140029E+05      0.6535890704E+05      0.6535899908E+06     -0.3266664673E+00
          0                 3           2            57   15     1       0.1785619355E-01      26  115    1      -0.9100695953E+03      0.3267945975E+04      0.6535890704E+05      0.1785619355E-01

    ------------------------------------------------
       NWT REQUIRED            3 OUTER ITERATIONS 
       AND A TOTAL OF          6 INNER ITERATIONS.
    ------------------------------------------------

 OUTPUT CONTROL FOR STRESS PERIOD    1   TIME STEP  274
    SAVE HEAD FOR ALL LAYERS
    SAVE DRAWDOWN FOR ALL LAYERS
    SAVE BUDGET
    PRINT BUDGET
 UBDSV1 SAVING "         STORAGE" ON UNIT   9 AT TIME STEP274, STRESS PERIOD   1
 UBDSV2 SAVING "   CONSTANT HEAD" ON UNIT   9 AT TIME STEP274, STRESS PERIOD   1
 UBDSV1 SAVING "FLOW RIGHT FACE " ON UNIT   9 AT TIME STEP274, STRESS PERIOD   1
 UBDSV1 SAVING "FLOW FRONT FACE " ON UNIT   9 AT TIME STEP274, STRESS PERIOD   1
 UBDSV4 SAVING "   RIVER LEAKAGE" ON UNIT   9 AT TIME STEP274, STRESS PERIOD   1
 UBDSV3 SAVING "        RECHARGE" ON UNIT   9 AT TIME STEP274, STRESS PERIOD   1

 HEAD WILL BE SAVED ON UNIT   37 AT END OF TIME STEP  274, STRESS PERIOD    1

 DRAWDOWN WILL BE SAVED ON UNIT   38 AT END OF TIME STEP  274, STRESS PERIOD    1
1
  VOLUMETRIC BUDGET FOR ENTIRE MODEL AT END OF TIME STEP  274, STRESS PERIOD   1
  ------------------------------------------------------------------------------

     CUMULATIVE VOLUMES      L**3       RATES FOR THIS TIME STEP      L**3/T
     ------------------                 ------------------------

           IN:                                      IN:
           ---                                      ---
             STORAGE =   234585824.0000               STORAGE =      761271.5000
       CONSTANT HEAD =           0.0000         CONSTANT HEAD =           0.0000
       RIVER LEAKAGE =  1155610112.0000         RIVER LEAKAGE =     2317148.7500
            RECHARGE =     4263465.5000              RECHARGE =       71927.6016

            TOTAL IN =  1394459392.0000              TOTAL IN =     3150347.7500

          OUT:                                     OUT:
          ----                                     ----
             STORAGE =  1380560000.0000               STORAGE =     2963708.2500
       CONSTANT HEAD =           0.0000         CONSTANT HEAD =           0.0000
       RIVER LEAKAGE =    14319700.0000         RIVER LEAKAGE =      187941.7812
            RECHARGE =           0.0000              RECHARGE =           0.0000

           TOTAL OUT =  1394879744.0000             TOTAL OUT =     3151650.0000

            IN - OUT =     -420352.0000              IN - OUT =       -1302.2500

 PERCENT DISCREPANCY =          -0.03     PERCENT DISCREPANCY =          -0.04






         TIME SUMMARY AT END OF TIME STEP  274 IN STRESS PERIOD    1
                    SECONDS     MINUTES      HOURS       DAYS        YEARS
                    -----------------------------------------------------------
   TIME STEP LENGTH  86400.      1440.0      24.000      1.0000     2.73785E-03
 STRESS PERIOD TIME 2.36736E+07 3.94560E+05  6576.0      274.00     0.75017    
         TOTAL TIME 2.36736E+07 3.94560E+05  6576.0      274.00     0.75017    
1
 
 SOLVING FOR HEAD 
                                                   Max.-Head-Change                        Max.-Flux-Residual
  Residual-Control   Outer-Iter.   Inner-Iter.     Column Row Layer    Max.-Head-Change    Column Row Layer    Max.-Flux-Residual            L2-New               L2-Old           Solver-Max-Delh
          0                 1           2            54   44     1       0.3474845980E+01      36   74    1       0.2651580745E+06      0.8601395777E+06      0.1633998264E+03      0.3474845980E+01
          0                 2           2            54   44     1      -0.3001010062E+00      36   74    1      -0.2651583651E+05      0.8601608118E+05      0.8601395777E+06     -0.3001010062E+00
          0                 3           2            26   78     1       0.7415481039E-01      36   74    1      -0.1325791368E+04      0.4300817313E+04      0.8601608118E+05      0.7415481039E-01

    ------------------------------------------------
       NWT REQUIRED            3 OUTER ITERATIONS 
       AND A TOTAL OF          6 INNER ITERATIONS.
    ------------------------------------------------

 OUTPUT CONTROL FOR STRESS PERIOD    1   TIME STEP  275
    SAVE HEAD FOR ALL LAYERS
    SAVE DRAWDOWN FOR ALL LAYERS
    SAVE BUDGET
    PRINT BUDGET
 UBDSV1 SAVING "         STORAGE" ON UNIT   9 AT TIME STEP275, STRESS PERIOD   1
 UBDSV2 SAVING "   CONSTANT HEAD" ON UNIT   9 AT TIME STEP275, STRESS PERIOD   1
 UBDSV1 SAVING "FLOW RIGHT FACE " ON UNIT   9 AT TIME STEP275, STRESS PERIOD   1
 UBDSV1 SAVING "FLOW FRONT FACE " ON UNIT   9 AT TIME STEP275, STRESS PERIOD   1
 UBDSV4 SAVING "   RIVER LEAKAGE" ON UNIT   9 AT TIME STEP275, STRESS PERIOD   1
 UBDSV3 SAVING "        RECHARGE" ON UNIT   9 AT TIME STEP275, STRESS PERIOD   1

 HEAD WILL BE SAVED ON UNIT   37 AT END OF TIME STEP  275, STRESS PERIOD    1

 DRAWDOWN WILL BE SAVED ON UNIT   38 AT END OF TIME STEP  275, STRESS PERIOD    1
1
  VOLUMETRIC BUDGET FOR ENTIRE MODEL AT END OF TIME STEP  275, STRESS PERIOD   1
  ------------------------------------------------------------------------------

     CUMULATIVE VOLUMES      L**3       RATES FOR THIS TIME STEP      L**3/T
     ------------------                 ------------------------

           IN:                                      IN:
           ---                                      ---
             STORAGE =   235341760.0000               STORAGE =      755931.6250
       CONSTANT HEAD =           0.0000         CONSTANT HEAD =           0.0000
       RIVER LEAKAGE =  1158909952.0000         RIVER LEAKAGE =     3299846.0000
            RECHARGE =     4365671.0000              RECHARGE =      102205.3125

            TOTAL IN =  1398617344.0000              TOTAL IN =     4157983.0000

          OUT:                                     OUT:
          ----                                     ----
             STORAGE =  1384531968.0000               STORAGE =     3971980.5000
       CONSTANT HEAD =           0.0000         CONSTANT HEAD =           0.0000
       RIVER LEAKAGE =    14507520.0000         RIVER LEAKAGE =      187820.1094
            RECHARGE =           0.0000              RECHARGE =           0.0000

           TOTAL OUT =  1399039488.0000             TOTAL OUT =     4159800.5000

            IN - OUT =     -422144.0000              IN - OUT =       -1817.5000

 PERCENT DISCREPANCY =          -0.03     PERCENT DISCREPANCY =          -0.04






         TIME SUMMARY AT END OF TIME STEP  275 IN STRESS PERIOD    1
                    SECONDS     MINUTES      HOURS       DAYS        YEARS
                    -----------------------------------------------------------
   TIME STEP LENGTH  86400.      1440.0      24.000      1.0000     2.73785E-03
 STRESS PERIOD TIME 2.37600E+07 3.96000E+05  6600.0      275.00     0.75291    
         TOTAL TIME 2.37600E+07 3.96000E+05  6600.0      275.00     0.75291    
1
 
 SOLVING FOR HEAD 
                                                   Max.-Head-Change                        Max.-Flux-Residual
  Residual-Control   Outer-Iter.   Inner-Iter.     Column Row Layer    Max.-Head-Change    Column Row Layer    Max.-Flux-Residual            L2-New               L2-Old           Solver-Max-Delh
          0                 1           2            54   44     1       0.3178150623E+01      26  115    1      -0.4578509565E+06      0.1324720308E+07      0.2152114526E+03      0.3178150623E+01
          0                 2           2            54   44     1      -0.2744772013E+00      26  115    1       0.4578511094E+05      0.1324670001E+06      0.1324720308E+07     -0.2744772013E+00
          0                 3           2            26   78     1       0.1151269658E+00      26  115    1       0.2289254496E+04      0.6623364626E+04      0.1324670001E+06      0.1151269658E+00

    ------------------------------------------------
       NWT REQUIRED            3 OUTER ITERATIONS 
       AND A TOTAL OF          6 INNER ITERATIONS.
    ------------------------------------------------

 OUTPUT CONTROL FOR STRESS PERIOD    1   TIME STEP  276
    SAVE HEAD FOR ALL LAYERS
    SAVE DRAWDOWN FOR ALL LAYERS
    SAVE BUDGET
    PRINT BUDGET
 UBDSV1 SAVING "         STORAGE" ON UNIT   9 AT TIME STEP276, STRESS PERIOD   1
 UBDSV2 SAVING "   CONSTANT HEAD" ON UNIT   9 AT TIME STEP276, STRESS PERIOD   1
 UBDSV1 SAVING "FLOW RIGHT FACE " ON UNIT   9 AT TIME STEP276, STRESS PERIOD   1
 UBDSV1 SAVING "FLOW FRONT FACE " ON UNIT   9 AT TIME STEP276, STRESS PERIOD   1
 UBDSV4 SAVING "   RIVER LEAKAGE" ON UNIT   9 AT TIME STEP276, STRESS PERIOD   1
 UBDSV3 SAVING "        RECHARGE" ON UNIT   9 AT TIME STEP276, STRESS PERIOD   1

 HEAD WILL BE SAVED ON UNIT   37 AT END OF TIME STEP  276, STRESS PERIOD    1

 DRAWDOWN WILL BE SAVED ON UNIT   38 AT END OF TIME STEP  276, STRESS PERIOD    1
1
  VOLUMETRIC BUDGET FOR ENTIRE MODEL AT END OF TIME STEP  276, STRESS PERIOD   1
  ------------------------------------------------------------------------------

     CUMULATIVE VOLUMES      L**3       RATES FOR THIS TIME STEP      L**3/T
     ------------------                 ------------------------

           IN:                                      IN:
           ---                                      ---
             STORAGE =   236106720.0000               STORAGE =      764963.7500
       CONSTANT HEAD =           0.0000         CONSTANT HEAD =           0.0000
       RIVER LEAKAGE =  1159999360.0000         RIVER LEAKAGE =     1089456.6250
            RECHARGE =     4479817.0000              RECHARGE =      114145.7734

            TOTAL IN =  1400585984.0000              TOTAL IN =     1968566.1250

          OUT:                                     OUT:
          ----                                     ----
             STORAGE =  1386297728.0000               STORAGE =     1765809.3750
       CONSTANT HEAD =           0.0000         CONSTANT HEAD =           0.0000
       RIVER LEAKAGE =    14708088.0000         RIVER LEAKAGE =      200567.8750
            RECHARGE =           0.0000              RECHARGE =           0.0000

           TOTAL OUT =  1401005824.0000             TOTAL OUT =     1966377.2500

            IN - OUT =     -419840.0000              IN - OUT =        2188.8750

 PERCENT DISCREPANCY =          -0.03     PERCENT DISCREPANCY =           0.11






         TIME SUMMARY AT END OF TIME STEP  276 IN STRESS PERIOD    1
                    SECONDS     MINUTES      HOURS       DAYS        YEARS
                    -----------------------------------------------------------
   TIME STEP LENGTH  86400.      1440.0      24.000      1.0000     2.73785E-03
 STRESS PERIOD TIME 2.38464E+07 3.97440E+05  6624.0      276.00     0.75565    
         TOTAL TIME 2.38464E+07 3.97440E+05  6624.0      276.00     0.75565    
1
 
 SOLVING FOR HEAD 
                                                   Max.-Head-Change                        Max.-Flux-Residual
  Residual-Control   Outer-Iter.   Inner-Iter.     Column Row Layer    Max.-Head-Change    Column Row Layer    Max.-Flux-Residual            L2-New               L2-Old           Solver-Max-Delh
          0                 1           2            54   44     1       0.2911677202E+01      47   79    1       0.3623400643E+05      0.1628013378E+06      0.3314255912E+03      0.2911677202E+01
          0                 2           2            54   44     1      -0.2514634937E+00      47   79    1      -0.3623422909E+04      0.1628029720E+05      0.1628013378E+06     -0.2514634937E+00
          0                 3           2            26   78     1       0.1074711986E+00      47   79    1      -0.1811712188E+03      0.8141302969E+03      0.1628029720E+05      0.1074711986E+00

    ------------------------------------------------
       NWT REQUIRED            3 OUTER ITERATIONS 
       AND A TOTAL OF          6 INNER ITERATIONS.
    ------------------------------------------------

 OUTPUT CONTROL FOR STRESS PERIOD    1   TIME STEP  277
    SAVE HEAD FOR ALL LAYERS
    SAVE DRAWDOWN FOR ALL LAYERS
    SAVE BUDGET
    PRINT BUDGET
 UBDSV1 SAVING "         STORAGE" ON UNIT   9 AT TIME STEP277, STRESS PERIOD   1
 UBDSV2 SAVING "   CONSTANT HEAD" ON UNIT   9 AT TIME STEP277, STRESS PERIOD   1
 UBDSV1 SAVING "FLOW RIGHT FACE " ON UNIT   9 AT TIME STEP277, STRESS PERIOD   1
 UBDSV1 SAVING "FLOW FRONT FACE " ON UNIT   9 AT TIME STEP277, STRESS PERIOD   1
 UBDSV4 SAVING "   RIVER LEAKAGE" ON UNIT   9 AT TIME STEP277, STRESS PERIOD   1
 UBDSV3 SAVING "        RECHARGE" ON UNIT   9 AT TIME STEP277, STRESS PERIOD   1

 HEAD WILL BE SAVED ON UNIT   37 AT END OF TIME STEP  277, STRESS PERIOD    1

 DRAWDOWN WILL BE SAVED ON UNIT   38 AT END OF TIME STEP  277, STRESS PERIOD    1
1
  VOLUMETRIC BUDGET FOR ENTIRE MODEL AT END OF TIME STEP  277, STRESS PERIOD   1
  ------------------------------------------------------------------------------

     CUMULATIVE VOLUMES      L**3       RATES FOR THIS TIME STEP      L**3/T
     ------------------                 ------------------------

           IN:                                      IN:
           ---                                      ---
             STORAGE =   236865040.0000               STORAGE =      758320.0000
       CONSTANT HEAD =           0.0000         CONSTANT HEAD =           0.0000
       RIVER LEAKAGE =  1160969728.0000         RIVER LEAKAGE =      970305.3750
            RECHARGE =     4582840.5000              RECHARGE =      103023.3359

            TOTAL IN =  1402417536.0000              TOTAL IN =     1831648.7500

          OUT:                                     OUT:
          ----                                     ----
             STORAGE =  1387935488.0000               STORAGE =     1637706.5000
       CONSTANT HEAD =           0.0000         CONSTANT HEAD =           0.0000
       RIVER LEAKAGE =    14902127.0000         RIVER LEAKAGE =      194038.6719
            RECHARGE =           0.0000              RECHARGE =           0.0000

           TOTAL OUT =  1402837632.0000             TOTAL OUT =     1831745.1250

            IN - OUT =     -420096.0000              IN - OUT =         -96.3750

 PERCENT DISCREPANCY =          -0.03     PERCENT DISCREPANCY =          -0.01






         TIME SUMMARY AT END OF TIME STEP  277 IN STRESS PERIOD    1
                    SECONDS     MINUTES      HOURS       DAYS        YEARS
                    -----------------------------------------------------------
   TIME STEP LENGTH  86400.      1440.0      24.000      1.0000     2.73785E-03
 STRESS PERIOD TIME 2.39328E+07 3.98880E+05  6648.0      277.00     0.75838    
         TOTAL TIME 2.39328E+07 3.98880E+05  6648.0      277.00     0.75838    
1
 
 SOLVING FOR HEAD 
                                                   Max.-Head-Change                        Max.-Flux-Residual
  Residual-Control   Outer-Iter.   Inner-Iter.     Column Row Layer    Max.-Head-Change    Column Row Layer    Max.-Flux-Residual            L2-New               L2-Old           Solver-Max-Delh
          0                 1           2            54   44     1       0.2657607627E+01      26  115    1       0.1410551078E+06      0.4549622557E+06      0.1127105285E+03      0.2657607627E+01
          0                 2           2            36   83     1      -0.1743742533E+02      26  115    1      -0.1410551540E+05      0.4529883897E+05      0.4549622557E+06     -0.1743742533E+02
          1                 2           0            36   83     1      -0.1220619752E+02      36   83    1       0.1522710941E+08      0.1522710958E+08      0.4529883897E+05     -0.1743742533E+02
          2                 2           0            36   83     1      -0.8544338119E+01      36   83    1       0.1220165149E+08      0.1220166083E+08      0.1522710958E+08     -0.1743742533E+02
          3                 2           0            36   83     1      -0.5981036582E+01      36   83    1       0.8539613492E+07      0.8539647476E+07      0.1220166083E+08     -0.1743742533E+02
          4                 2           0            36   83     1      -0.4186725536E+01      36   83    1       0.5976027352E+07      0.5976104606E+07      0.8539647476E+07     -0.1743742533E+02
          5                 2           0            36   83     1      -0.2930707825E+01      36   83    1       0.4181438888E+07      0.4181583637E+07      0.5976104606E+07     -0.1743742533E+02
          6                 2           0            36   83     1      -0.2051495443E+01      36   83    1       0.2925188667E+07      0.2925433885E+07      0.4181583637E+07     -0.1743742533E+02
          7                 2           0            36   83     1      -0.1436046785E+01      36   83    1       0.2045794753E+07      0.2046186469E+07      0.2925433885E+07     -0.1743742533E+02
          8                 2           0            36   83     1      -0.1005232733E+01      36   83    1       0.1430209823E+07      0.1430813173E+07      0.2046186469E+07     -0.1743742533E+02
                                                   Max.-Head-Change                        Max.-Flux-Residual
  Residual-Control   Outer-Iter.   Inner-Iter.     Column Row Layer    Max.-Head-Change    Column Row Layer    Max.-Flux-Residual            L2-New               L2-Old           Solver-Max-Delh
          9                 2           0            36   83     1      -0.7036629009E+00      36   83    1       0.9992958718E+06      0.1000203712E+07      0.1430813173E+07     -0.1743742533E+02
         10                 2           0            36   83     1      -0.4925640222E+00      36   83    1       0.6976539021E+06      0.6989991730E+06      0.1000203712E+07     -0.1743742533E+02
         11                 2           0            36   83     1      -0.3447948097E+00      36   83    1       0.4865034446E+06      0.4884769052E+06      0.6989991730E+06     -0.1743742533E+02
         12                 2           0            36   83     1      -0.2413563627E+00      36   83    1       0.3386975965E+06      0.3415729981E+06      0.4884769052E+06     -0.1743742533E+02
         13                 2           0            36   83     1      -0.1689494510E+00      36   83    1       0.2352332447E+06      0.2394018867E+06      0.3415729981E+06     -0.1743742533E+02
         14                 2           0            36   83     1      -0.1182646137E+00      36   83    1       0.1628080724E+06      0.1688221018E+06      0.2394018867E+06     -0.1743742533E+02
         15                 2           0            36   83     1      -0.8278522817E-01      36   83    1       0.1121103902E+06      0.1207240889E+06      0.1688221018E+06     -0.1743742533E+02
         16                 2           0            36   83     1      -0.5794965873E-01      36   83    1       0.7662198272E+05      0.8879361127E+05      0.1207240889E+06     -0.1743742533E+02
         17                 2           0            36   83     1      -0.4056476042E-01      36   83    1       0.5178008291E+05      0.6855677192E+05      0.8879361127E+05     -0.1743742533E+02
         18                 2           0            36   83     1      -0.2839533181E-01      36   83    1       0.3439074601E+05      0.5661638988E+05      0.6855677192E+05     -0.1743742533E+02
                                                   Max.-Head-Change                        Max.-Flux-Residual
  Residual-Control   Outer-Iter.   Inner-Iter.     Column Row Layer    Max.-Head-Change    Column Row Layer    Max.-Flux-Residual            L2-New               L2-Old           Solver-Max-Delh
         19                 2           0            36   83     1      -0.1987673193E-01      36   83    1       0.2221820678E+05      0.5018993738E+05      0.5661638988E+05     -0.1743742533E+02
          0                 3           2            54   44     1      -0.2292749057E+00      26  115    1      -0.1409024061E+05      0.4706255335E+05      0.5018993738E+05     -0.2292749057E+00
          0                 4           2            26   78     1       0.1358401056E+00      36   83    1       0.2431188825E+04      0.3313180319E+04      0.4706255335E+05      0.1358401056E+00

    ------------------------------------------------
       NWT REQUIRED            4 OUTER ITERATIONS 
       AND A TOTAL OF          8 INNER ITERATIONS.
    ------------------------------------------------

 OUTPUT CONTROL FOR STRESS PERIOD    1   TIME STEP  278
    SAVE HEAD FOR ALL LAYERS
    SAVE DRAWDOWN FOR ALL LAYERS
    SAVE BUDGET
    PRINT BUDGET
 UBDSV1 SAVING "         STORAGE" ON UNIT   9 AT TIME STEP278, STRESS PERIOD   1
 UBDSV2 SAVING "   CONSTANT HEAD" ON UNIT   9 AT TIME STEP278, STRESS PERIOD   1
 UBDSV1 SAVING "FLOW RIGHT FACE " ON UNIT   9 AT TIME STEP278, STRESS PERIOD   1
 UBDSV1 SAVING "FLOW FRONT FACE " ON UNIT   9 AT TIME STEP278, STRESS PERIOD   1
 UBDSV4 SAVING "   RIVER LEAKAGE" ON UNIT   9 AT TIME STEP278, STRESS PERIOD   1
 UBDSV3 SAVING "        RECHARGE" ON UNIT   9 AT TIME STEP278, STRESS PERIOD   1

 HEAD WILL BE SAVED ON UNIT   37 AT END OF TIME STEP  278, STRESS PERIOD    1

 DRAWDOWN WILL BE SAVED ON UNIT   38 AT END OF TIME STEP  278, STRESS PERIOD    1
1
  VOLUMETRIC BUDGET FOR ENTIRE MODEL AT END OF TIME STEP  278, STRESS PERIOD   1
  ------------------------------------------------------------------------------

     CUMULATIVE VOLUMES      L**3       RATES FOR THIS TIME STEP      L**3/T
     ------------------                 ------------------------

           IN:                                      IN:
           ---                                      ---
             STORAGE =   237620256.0000               STORAGE =      755209.2500
       CONSTANT HEAD =           0.0000         CONSTANT HEAD =           0.0000
       RIVER LEAKAGE =  1162663936.0000         RIVER LEAKAGE =     1694252.6250
            RECHARGE =     4685472.0000              RECHARGE =      102631.7422

            TOTAL IN =  1404969600.0000              TOTAL IN =     2552093.5000

          OUT:                                     OUT:
          ----                                     ----
             STORAGE =  1390298112.0000               STORAGE =     2362571.7500
       CONSTANT HEAD =           0.0000         CONSTANT HEAD =           0.0000
       RIVER LEAKAGE =    15092180.0000         RIVER LEAKAGE =      190052.9531
            RECHARGE =           0.0000              RECHARGE =           0.0000

           TOTAL OUT =  1405390336.0000             TOTAL OUT =     2552624.7500

            IN - OUT =     -420736.0000              IN - OUT =        -531.2500

 PERCENT DISCREPANCY =          -0.03     PERCENT DISCREPANCY =          -0.02






         TIME SUMMARY AT END OF TIME STEP  278 IN STRESS PERIOD    1
                    SECONDS     MINUTES      HOURS       DAYS        YEARS
                    -----------------------------------------------------------
   TIME STEP LENGTH  86400.      1440.0      24.000      1.0000     2.73785E-03
 STRESS PERIOD TIME 2.40192E+07 4.00320E+05  6672.0      278.00     0.76112    
         TOTAL TIME 2.40192E+07 4.00320E+05  6672.0      278.00     0.76112    
1
 
 SOLVING FOR HEAD 
                                                   Max.-Head-Change                        Max.-Flux-Residual
  Residual-Control   Outer-Iter.   Inner-Iter.     Column Row Layer    Max.-Head-Change    Column Row Layer    Max.-Flux-Residual            L2-New               L2-Old           Solver-Max-Delh
          0                 1           2            54   44     1       0.2429540827E+01      43   59    1       0.1378428620E+06      0.4753833699E+06      0.4462618368E+03      0.2429540827E+01
          0                 2           2            36   83     1       0.3405056691E+03      36   83    1       0.7609971835E+05      0.8936100483E+05      0.4753833699E+06      0.3405056691E+03
          1                 2           0            36   83     1       0.2383539643E+03      36   83    1      -0.4913268419E+08      0.4913269672E+08      0.8936100483E+05      0.3405056691E+03
          2                 2           0            36   83     1       0.1668477722E+03      36   83    1      -0.3436697304E+08      0.3436698404E+08      0.4913269672E+08      0.3405056691E+03
          3                 2           0            36   83     1       0.1167934385E+03      36   83    1      -0.2403097541E+08      0.2403099245E+08      0.3436698404E+08      0.3405056691E+03
          4                 2           0            36   83     1       0.8175540558E+02      36   83    1      -0.1679577719E+08      0.1679580864E+08      0.2403099245E+08      0.3405056691E+03
          5                 2           0            36   83     1       0.5722878293E+02      36   83    1      -0.1173113853E+08      0.1173119468E+08      0.1679580864E+08      0.3405056691E+03
          6                 2           0            36   83     1       0.4006014737E+02      36   83    1      -0.8186510111E+07      0.8186604553E+07      0.1173119468E+08      0.3405056691E+03
          7                 2           0            36   83     1       0.2804210268E+02      36   83    1      -0.5706133160E+07      0.5706284411E+07      0.8186604553E+07      0.3405056691E+03
          8                 2           0            36   83     1       0.1962947154E+02      36   83    1      -0.3970041976E+07      0.3970276284E+07      0.5706284411E+07      0.3405056691E+03
                                                   Max.-Head-Change                        Max.-Flux-Residual
  Residual-Control   Outer-Iter.   Inner-Iter.     Column Row Layer    Max.-Head-Change    Column Row Layer    Max.-Flux-Residual            L2-New               L2-Old           Solver-Max-Delh
          9                 2           0            36   83     1       0.1374062985E+02      36   83    1      -0.2755097665E+07      0.2755453092E+07      0.3970276284E+07      0.3405056691E+03
         10                 2           0            36   83     1       0.9618440729E+01      36   83    1      -0.1904885384E+07      0.1905417889E+07      0.2755453092E+07      0.3405056691E+03
         11                 2           0            36   83     1       0.6732908395E+01      36   83    1      -0.1309905697E+07      0.1310698603E+07      0.1905417889E+07      0.3405056691E+03
         12                 2           0            36   83     1       0.4713035797E+01      36   83    1      -0.8934199598E+06      0.8946014100E+06      0.1310698603E+07      0.3405056691E+03
         13                 2           0            36   83     1       0.3299125001E+01      36   83    1      -0.6018799500E+06      0.6036524650E+06      0.8946014100E+06      0.3405056691E+03
         14                 2           0            36   83     1       0.2309387462E+01      36   83    1      -0.3978019472E+06      0.4005001285E+06      0.6036524650E+06      0.3405056691E+03
         15                 2           0            36   83     1       0.1616571196E+01      36   83    1      -0.2549473480E+06      0.2591604761E+06      0.4005001285E+06      0.3405056691E+03
         16                 2           0            36   83     1       0.1131599818E+01      36   83    1      -0.1549491303E+06      0.1618137260E+06      0.2591604761E+06      0.3405056691E+03
          0                 3           2            36   83     1      -0.5591367668E+00      36   83    1      -0.8495037928E+05      0.9693780688E+05      0.1618137260E+06     -0.5591367668E+00
          0                 4           2            26   78     1       0.1328941758E+00      36   83    1      -0.4247526714E+04      0.4846703146E+04      0.9693780688E+05      0.1328941758E+00

    ------------------------------------------------
       NWT REQUIRED            4 OUTER ITERATIONS 
       AND A TOTAL OF          8 INNER ITERATIONS.
    ------------------------------------------------

 OUTPUT CONTROL FOR STRESS PERIOD    1   TIME STEP  279
    SAVE HEAD FOR ALL LAYERS
    SAVE DRAWDOWN FOR ALL LAYERS
    SAVE BUDGET
    PRINT BUDGET
 UBDSV1 SAVING "         STORAGE" ON UNIT   9 AT TIME STEP279, STRESS PERIOD   1
 UBDSV2 SAVING "   CONSTANT HEAD" ON UNIT   9 AT TIME STEP279, STRESS PERIOD   1
 UBDSV1 SAVING "FLOW RIGHT FACE " ON UNIT   9 AT TIME STEP279, STRESS PERIOD   1
 UBDSV1 SAVING "FLOW FRONT FACE " ON UNIT   9 AT TIME STEP279, STRESS PERIOD   1
 UBDSV4 SAVING "   RIVER LEAKAGE" ON UNIT   9 AT TIME STEP279, STRESS PERIOD   1
 UBDSV3 SAVING "        RECHARGE" ON UNIT   9 AT TIME STEP279, STRESS PERIOD   1

 HEAD WILL BE SAVED ON UNIT   37 AT END OF TIME STEP  279, STRESS PERIOD    1

 DRAWDOWN WILL BE SAVED ON UNIT   38 AT END OF TIME STEP  279, STRESS PERIOD    1
1
  VOLUMETRIC BUDGET FOR ENTIRE MODEL AT END OF TIME STEP  279, STRESS PERIOD   1
  ------------------------------------------------------------------------------

     CUMULATIVE VOLUMES      L**3       RATES FOR THIS TIME STEP      L**3/T
     ------------------                 ------------------------

           IN:                                      IN:
           ---                                      ---
             STORAGE =   238375872.0000               STORAGE =      755610.3750
       CONSTANT HEAD =           0.0000         CONSTANT HEAD =           0.0000
       RIVER LEAKAGE =  1164661888.0000         RIVER LEAKAGE =     1997933.2500
            RECHARGE =     4776336.0000              RECHARGE =       90863.7734

            TOTAL IN =  1407814144.0000              TOTAL IN =     2844407.5000

          OUT:                                     OUT:
          ----                                     ----
             STORAGE =  1392957696.0000               STORAGE =     2659592.0000
       CONSTANT HEAD =           0.0000         CONSTANT HEAD =           0.0000
       RIVER LEAKAGE =    15278378.0000         RIVER LEAKAGE =      186197.8438
            RECHARGE =           0.0000              RECHARGE =           0.0000

           TOTAL OUT =  1408236032.0000             TOTAL OUT =     2845789.7500

            IN - OUT =     -421888.0000              IN - OUT =       -1382.2500

 PERCENT DISCREPANCY =          -0.03     PERCENT DISCREPANCY =          -0.05






         TIME SUMMARY AT END OF TIME STEP  279 IN STRESS PERIOD    1
                    SECONDS     MINUTES      HOURS       DAYS        YEARS
                    -----------------------------------------------------------
   TIME STEP LENGTH  86400.      1440.0      24.000      1.0000     2.73785E-03
 STRESS PERIOD TIME 2.41056E+07 4.01760E+05  6696.0      279.00     0.76386    
         TOTAL TIME 2.41056E+07 4.01760E+05  6696.0      279.00     0.76386    
1
 
 SOLVING FOR HEAD 
                                                   Max.-Head-Change                        Max.-Flux-Residual
  Residual-Control   Outer-Iter.   Inner-Iter.     Column Row Layer    Max.-Head-Change    Column Row Layer    Max.-Flux-Residual            L2-New               L2-Old           Solver-Max-Delh
          0                 1           2            54   44     1       0.2222403278E+01      34   98    1       0.7660781270E+06      0.1959604141E+07      0.2428573791E+03      0.2222403278E+01
          0                 2           2            65   15     1       0.2127503041E+01       9  126    1       0.8754862677E+05      0.2137976805E+06      0.1959604141E+07      0.2127503041E+01
          0                 3           2            65   15     1      -0.1738829216E+01      65   15    1      -0.7898814895E+05      0.1047328907E+06      0.2137976805E+06     -0.1738829216E+01
          0                 4           2            65   15     1      -0.3086458652E+00      65   15    1      -0.1402039312E+05      0.1845540160E+05      0.1047328907E+06     -0.3086458652E+00
          0                 5           2            26   78     1       0.1000557167E+00      65   15    1      -0.2488478986E+04      0.3273768953E+04      0.1845540160E+05      0.1000557167E+00
          0                 6           2            26   78     1       0.1000323809E+00      65   15    1      -0.4416551458E+03      0.5811394616E+03      0.3273768953E+04      0.1000323809E+00

    ------------------------------------------------
       NWT REQUIRED            6 OUTER ITERATIONS 
       AND A TOTAL OF         12 INNER ITERATIONS.
    ------------------------------------------------

 OUTPUT CONTROL FOR STRESS PERIOD    1   TIME STEP  280
    SAVE HEAD FOR ALL LAYERS
    SAVE DRAWDOWN FOR ALL LAYERS
    SAVE BUDGET
    PRINT BUDGET
 UBDSV1 SAVING "         STORAGE" ON UNIT   9 AT TIME STEP280, STRESS PERIOD   1
 UBDSV2 SAVING "   CONSTANT HEAD" ON UNIT   9 AT TIME STEP280, STRESS PERIOD   1
 UBDSV1 SAVING "FLOW RIGHT FACE " ON UNIT   9 AT TIME STEP280, STRESS PERIOD   1
 UBDSV1 SAVING "FLOW FRONT FACE " ON UNIT   9 AT TIME STEP280, STRESS PERIOD   1
 UBDSV4 SAVING "   RIVER LEAKAGE" ON UNIT   9 AT TIME STEP280, STRESS PERIOD   1
 UBDSV3 SAVING "        RECHARGE" ON UNIT   9 AT TIME STEP280, STRESS PERIOD   1

 HEAD WILL BE SAVED ON UNIT   37 AT END OF TIME STEP  280, STRESS PERIOD    1

 DRAWDOWN WILL BE SAVED ON UNIT   38 AT END OF TIME STEP  280, STRESS PERIOD    1
1
  VOLUMETRIC BUDGET FOR ENTIRE MODEL AT END OF TIME STEP  280, STRESS PERIOD   1
  ------------------------------------------------------------------------------

     CUMULATIVE VOLUMES      L**3       RATES FOR THIS TIME STEP      L**3/T
     ------------------                 ------------------------

           IN:                                      IN:
           ---                                      ---
             STORAGE =   239130576.0000               STORAGE =      754696.8750
       CONSTANT HEAD =           0.0000         CONSTANT HEAD =           0.0000
       RIVER LEAKAGE =  1170490240.0000         RIVER LEAKAGE =     5828306.0000
            RECHARGE =     4867454.0000              RECHARGE =       91117.9688

            TOTAL IN =  1414488320.0000              TOTAL IN =     6674121.0000

          OUT:                                     OUT:
          ----                                     ----
             STORAGE =  1399459584.0000               STORAGE =     6501939.0000
       CONSTANT HEAD =           0.0000         CONSTANT HEAD =           0.0000
       RIVER LEAKAGE =    15450663.0000         RIVER LEAKAGE =      172284.9062
            RECHARGE =           0.0000              RECHARGE =           0.0000

           TOTAL OUT =  1414910208.0000             TOTAL OUT =     6674224.0000

            IN - OUT =     -421888.0000              IN - OUT =        -103.0000

 PERCENT DISCREPANCY =          -0.03     PERCENT DISCREPANCY =          -0.00






         TIME SUMMARY AT END OF TIME STEP  280 IN STRESS PERIOD    1
                    SECONDS     MINUTES      HOURS       DAYS        YEARS
                    -----------------------------------------------------------
   TIME STEP LENGTH  86400.      1440.0      24.000      1.0000     2.73785E-03
 STRESS PERIOD TIME 2.41920E+07 4.03200E+05  6720.0      280.00     0.76660    
         TOTAL TIME 2.41920E+07 4.03200E+05  6720.0      280.00     0.76660    
1
 
 SOLVING FOR HEAD 
                                                   Max.-Head-Change                        Max.-Flux-Residual
  Residual-Control   Outer-Iter.   Inner-Iter.     Column Row Layer    Max.-Head-Change    Column Row Layer    Max.-Flux-Residual            L2-New               L2-Old           Solver-Max-Delh
          0                 1           2            54   44     1       0.2072558384E+01      14  124    1       0.2616401572E+06      0.9676904692E+06      0.1039081298E+03      0.2072558384E+01
          0                 2           2            33  101     1       0.1462315612E+01      33  101    1       0.1425339671E+06      0.2017361982E+06      0.9676904692E+06      0.1462315612E+01
          0                 3           2            33  101     1      -0.1262908804E+00      33  101    1      -0.1425330395E+05      0.1854487587E+05      0.2017361982E+06     -0.1262908804E+00
          0                 4           2            26   78     1       0.6762308124E-01      33  101    1      -0.7126648460E+03      0.9272785363E+03      0.1854487587E+05      0.6762308124E-01

    ------------------------------------------------
       NWT REQUIRED            4 OUTER ITERATIONS 
       AND A TOTAL OF          8 INNER ITERATIONS.
    ------------------------------------------------

 OUTPUT CONTROL FOR STRESS PERIOD    1   TIME STEP  281
    SAVE HEAD FOR ALL LAYERS
    SAVE DRAWDOWN FOR ALL LAYERS
    SAVE BUDGET
    PRINT BUDGET
 UBDSV1 SAVING "         STORAGE" ON UNIT   9 AT TIME STEP281, STRESS PERIOD   1
 UBDSV2 SAVING "   CONSTANT HEAD" ON UNIT   9 AT TIME STEP281, STRESS PERIOD   1
 UBDSV1 SAVING "FLOW RIGHT FACE " ON UNIT   9 AT TIME STEP281, STRESS PERIOD   1
 UBDSV1 SAVING "FLOW FRONT FACE " ON UNIT   9 AT TIME STEP281, STRESS PERIOD   1
 UBDSV4 SAVING "   RIVER LEAKAGE" ON UNIT   9 AT TIME STEP281, STRESS PERIOD   1
 UBDSV3 SAVING "        RECHARGE" ON UNIT   9 AT TIME STEP281, STRESS PERIOD   1

 HEAD WILL BE SAVED ON UNIT   37 AT END OF TIME STEP  281, STRESS PERIOD    1

 DRAWDOWN WILL BE SAVED ON UNIT   38 AT END OF TIME STEP  281, STRESS PERIOD    1
1
  VOLUMETRIC BUDGET FOR ENTIRE MODEL AT END OF TIME STEP  281, STRESS PERIOD   1
  ------------------------------------------------------------------------------

     CUMULATIVE VOLUMES      L**3       RATES FOR THIS TIME STEP      L**3/T
     ------------------                 ------------------------

           IN:                                      IN:
           ---                                      ---
             STORAGE =   239886240.0000               STORAGE =      755661.9375
       CONSTANT HEAD =           0.0000         CONSTANT HEAD =           0.0000
       RIVER LEAKAGE =  1176316288.0000         RIVER LEAKAGE =     5826055.5000
            RECHARGE =     4971939.0000              RECHARGE =      104485.1094

            TOTAL IN =  1421174400.0000              TOTAL IN =     6686202.5000

          OUT:                                     OUT:
          ----                                     ----
             STORAGE =  1405964544.0000               STORAGE =     6504988.0000
       CONSTANT HEAD =           0.0000         CONSTANT HEAD =           0.0000
       RIVER LEAKAGE =    15632022.0000         RIVER LEAKAGE =      181358.9688
            RECHARGE =           0.0000              RECHARGE =           0.0000

           TOTAL OUT =  1421596544.0000             TOTAL OUT =     6686347.0000

            IN - OUT =     -422144.0000              IN - OUT =        -144.5000

 PERCENT DISCREPANCY =          -0.03     PERCENT DISCREPANCY =          -0.00






         TIME SUMMARY AT END OF TIME STEP  281 IN STRESS PERIOD    1
                    SECONDS     MINUTES      HOURS       DAYS        YEARS
                    -----------------------------------------------------------
   TIME STEP LENGTH  86400.      1440.0      24.000      1.0000     2.73785E-03
 STRESS PERIOD TIME 2.42784E+07 4.04640E+05  6744.0      281.00     0.76934    
         TOTAL TIME 2.42784E+07 4.04640E+05  6744.0      281.00     0.76934    
1
 
 SOLVING FOR HEAD 
                                                   Max.-Head-Change                        Max.-Flux-Residual
  Residual-Control   Outer-Iter.   Inner-Iter.     Column Row Layer    Max.-Head-Change    Column Row Layer    Max.-Flux-Residual            L2-New               L2-Old           Solver-Max-Delh
          0                 1           2            54   44     1       0.2003470725E+01      34   98    1      -0.7202525791E+06      0.1583286491E+07      0.4727529334E+02      0.2003470725E+01
          0                 2           2            36   47     1       0.3481473982E+02      34   98    1       0.7202554710E+05      0.1579938364E+06      0.1583286491E+07      0.3481473982E+02
          1                 2           0            36   47     1       0.2437031746E+02      36   47    1      -0.5354384405E+07      0.5386194259E+07      0.1579938364E+06      0.3481473982E+02
          2                 2           0            36   47     1       0.1705922193E+02      36   47    1      -0.3744488361E+07      0.3767006925E+07      0.5386194259E+07      0.3481473982E+02
          3                 2           0            36   47     1       0.1194145515E+02      36   47    1      -0.2617561149E+07      0.2634301867E+07      0.3767006925E+07      0.3481473982E+02
          4                 2           0            36   47     1       0.8359018462E+01      36   47    1      -0.1828712114E+07      0.1842446368E+07      0.2634301867E+07      0.3481473982E+02
          5                 2           0            36   47     1       0.5851312824E+01      36   47    1      -0.1276517799E+07      0.1289633764E+07      0.1842446368E+07      0.3481473982E+02
          6                 2           0            36   47     1       0.4095918907E+01      36   47    1      -0.8899817846E+06      0.9047869109E+06      0.1289633764E+07      0.3481473982E+02
          7                 2           0            36   47     1       0.2867143186E+01      36   47    1      -0.6194065794E+06      0.6383995173E+06      0.9047869109E+06      0.3481473982E+02
          8                 2           0            36   47     1       0.2007000196E+01      36   47    1      -0.4300039389E+06      0.4561044321E+06      0.6383995173E+06      0.3481473982E+02
                                                   Max.-Head-Change                        Max.-Flux-Residual
  Residual-Control   Outer-Iter.   Inner-Iter.     Column Row Layer    Max.-Head-Change    Column Row Layer    Max.-Flux-Residual            L2-New               L2-Old           Solver-Max-Delh
          9                 2           0            36   47     1       0.1404900113E+01      36   47    1      -0.2974220929E+06      0.3340681747E+06      0.4561044321E+06      0.3481473982E+02
         10                 2           0            36   47     1       0.9834300626E+00      36   47    1      -0.2046148023E+06      0.2555121826E+06      0.3340681747E+06      0.3481473982E+02
         11                 2           0            36   47     1       0.6884010321E+00      36   47    1      -0.1396496999E+06      0.2079589661E+06      0.2555121826E+06      0.3481473982E+02
         12                 2           0            36   47     1       0.4818807143E+00      36   47    1      -0.9417412906E+05      0.1813999516E+06      0.2079589661E+06      0.3481473982E+02
          0                 3           2            36   47     1      -0.3326579413E+00      34   98    1       0.7107846730E+05      0.1678086088E+06      0.1813999516E+06     -0.3326579413E+00
          0                 4           2            56   35     1       0.1437677048E+00      36   47    1      -0.1106556584E+05      0.1452018091E+05      0.1678086088E+06      0.1437677048E+00
          0                 5           2            56   35     1       0.1437649875E+00      36   47    1      -0.1964026823E+04      0.2023102966E+04      0.1452018091E+05      0.1437649875E+00

    ------------------------------------------------
       NWT REQUIRED            5 OUTER ITERATIONS 
       AND A TOTAL OF         10 INNER ITERATIONS.
    ------------------------------------------------

 OUTPUT CONTROL FOR STRESS PERIOD    1   TIME STEP  282
    SAVE HEAD FOR ALL LAYERS
    SAVE DRAWDOWN FOR ALL LAYERS
    SAVE BUDGET
    PRINT BUDGET
 UBDSV1 SAVING "         STORAGE" ON UNIT   9 AT TIME STEP282, STRESS PERIOD   1
 UBDSV2 SAVING "   CONSTANT HEAD" ON UNIT   9 AT TIME STEP282, STRESS PERIOD   1
 UBDSV1 SAVING "FLOW RIGHT FACE " ON UNIT   9 AT TIME STEP282, STRESS PERIOD   1
 UBDSV1 SAVING "FLOW FRONT FACE " ON UNIT   9 AT TIME STEP282, STRESS PERIOD   1
 UBDSV4 SAVING "   RIVER LEAKAGE" ON UNIT   9 AT TIME STEP282, STRESS PERIOD   1
 UBDSV3 SAVING "        RECHARGE" ON UNIT   9 AT TIME STEP282, STRESS PERIOD   1

 HEAD WILL BE SAVED ON UNIT   37 AT END OF TIME STEP  282, STRESS PERIOD    1

 DRAWDOWN WILL BE SAVED ON UNIT   38 AT END OF TIME STEP  282, STRESS PERIOD    1
1
  VOLUMETRIC BUDGET FOR ENTIRE MODEL AT END OF TIME STEP  282, STRESS PERIOD   1
  ------------------------------------------------------------------------------

     CUMULATIVE VOLUMES      L**3       RATES FOR THIS TIME STEP      L**3/T
     ------------------                 ------------------------

           IN:                                      IN:
           ---                                      ---
             STORAGE =   240658080.0000               STORAGE =      771842.0625
       CONSTANT HEAD =           0.0000         CONSTANT HEAD =           0.0000
       RIVER LEAKAGE =  1178498688.0000         RIVER LEAKAGE =     2182357.7500
            RECHARGE =     5089506.5000              RECHARGE =      117567.5547

            TOTAL IN =  1424246272.0000              TOTAL IN =     3071767.2500

          OUT:                                     OUT:
          ----                                     ----
             STORAGE =  1408828544.0000               STORAGE =     2864057.0000
       CONSTANT HEAD =           0.0000         CONSTANT HEAD =           0.0000
       RIVER LEAKAGE =    15839960.0000         RIVER LEAKAGE =      207937.9688
            RECHARGE =           0.0000              RECHARGE =           0.0000

           TOTAL OUT =  1424668544.0000             TOTAL OUT =     3071995.0000

            IN - OUT =     -422272.0000              IN - OUT =        -227.7500

 PERCENT DISCREPANCY =          -0.03     PERCENT DISCREPANCY =          -0.01






         TIME SUMMARY AT END OF TIME STEP  282 IN STRESS PERIOD    1
                    SECONDS     MINUTES      HOURS       DAYS        YEARS
                    -----------------------------------------------------------
   TIME STEP LENGTH  86400.      1440.0      24.000      1.0000     2.73785E-03
 STRESS PERIOD TIME 2.43648E+07 4.06080E+05  6768.0      282.00     0.77207    
         TOTAL TIME 2.43648E+07 4.06080E+05  6768.0      282.00     0.77207    
1
 
 SOLVING FOR HEAD 
                                                   Max.-Head-Change                        Max.-Flux-Residual
  Residual-Control   Outer-Iter.   Inner-Iter.     Column Row Layer    Max.-Head-Change    Column Row Layer    Max.-Flux-Residual            L2-New               L2-Old           Solver-Max-Delh
          0                 1           2            56   35     1       0.5858472631E+01      26  115    1      -0.4235429905E+06      0.1381053762E+07      0.3501587301E+03      0.5858472631E+01
          0                 2           2            36   75     1       0.1779066818E+02      56   35    1      -0.5164742712E+06      0.5346008402E+06      0.1381053762E+07      0.1779066818E+02
          1                 2           0            36   75     1       0.1245346752E+02      36   75    1      -0.2397964553E+07      0.2398116103E+07      0.5346008402E+06      0.1779066818E+02
          2                 2           0            36   75     1       0.8717427113E+01      36   75    1      -0.1675811020E+07      0.1685363401E+07      0.2398116103E+07      0.1779066818E+02
          3                 2           0            36   75     1       0.6102198875E+01      36   75    1      -0.1170303565E+07      0.1204688108E+07      0.1685363401E+07      0.1779066818E+02
          4                 2           0            36   75     1       0.4271539140E+01      36   75    1      -0.8164483572E+06      0.8924499846E+06      0.1204688108E+07      0.1779066818E+02
          5                 2           0            36   75     1       0.2990077347E+01      36   75    1      -0.5687497184E+06      0.7026646108E+06      0.8924499846E+06      0.1779066818E+02
          6                 2           0            36   75     1       0.2093054107E+01      56   35    1      -0.4340174345E+06      0.5984054775E+06      0.7026646108E+06      0.1779066818E+02
          0                 3           2            56   35     1      -0.4353512268E+01      56   35    1      -0.4587530590E+06      0.5481824420E+06      0.5984054775E+06     -0.4353512268E+01
          0                 4           2            36   75     1      -0.2956288745E+00      36   75    1      -0.4863230467E+05      0.5419659508E+05      0.5481824420E+06     -0.2956288745E+00
                                                   Max.-Head-Change                        Max.-Flux-Residual
  Residual-Control   Outer-Iter.   Inner-Iter.     Column Row Layer    Max.-Head-Change    Column Row Layer    Max.-Flux-Residual            L2-New               L2-Old           Solver-Max-Delh
          0                 5           2            36   75     1      -0.5247179414E-01      36   75    1      -0.8631715099E+04      0.8714215217E+04      0.5419659508E+05     -0.5247179414E-01
          0                 6           2            26   78     1       0.3790414430E-01      36   75    1      -0.1531954905E+04      0.1533137794E+04      0.8714215217E+04      0.3790414430E-01

    ------------------------------------------------
       NWT REQUIRED            6 OUTER ITERATIONS 
       AND A TOTAL OF         12 INNER ITERATIONS.
    ------------------------------------------------

 OUTPUT CONTROL FOR STRESS PERIOD    1   TIME STEP  283
    SAVE HEAD FOR ALL LAYERS
    SAVE DRAWDOWN FOR ALL LAYERS
    SAVE BUDGET
    PRINT BUDGET
 UBDSV1 SAVING "         STORAGE" ON UNIT   9 AT TIME STEP283, STRESS PERIOD   1
 UBDSV2 SAVING "   CONSTANT HEAD" ON UNIT   9 AT TIME STEP283, STRESS PERIOD   1
 UBDSV1 SAVING "FLOW RIGHT FACE " ON UNIT   9 AT TIME STEP283, STRESS PERIOD   1
 UBDSV1 SAVING "FLOW FRONT FACE " ON UNIT   9 AT TIME STEP283, STRESS PERIOD   1
 UBDSV4 SAVING "   RIVER LEAKAGE" ON UNIT   9 AT TIME STEP283, STRESS PERIOD   1
 UBDSV3 SAVING "        RECHARGE" ON UNIT   9 AT TIME STEP283, STRESS PERIOD   1

 HEAD WILL BE SAVED ON UNIT   37 AT END OF TIME STEP  283, STRESS PERIOD    1

 DRAWDOWN WILL BE SAVED ON UNIT   38 AT END OF TIME STEP  283, STRESS PERIOD    1
1
  VOLUMETRIC BUDGET FOR ENTIRE MODEL AT END OF TIME STEP  283, STRESS PERIOD   1
  ------------------------------------------------------------------------------

     CUMULATIVE VOLUMES      L**3       RATES FOR THIS TIME STEP      L**3/T
     ------------------                 ------------------------

           IN:                                      IN:
           ---                                      ---
             STORAGE =   241433328.0000               STORAGE =      775251.5625
       CONSTANT HEAD =           0.0000         CONSTANT HEAD =           0.0000
       RIVER LEAKAGE =  1179226496.0000         RIVER LEAKAGE =      727836.0000
            RECHARGE =     5198936.5000              RECHARGE =      109430.0625

            TOTAL IN =  1425858816.0000              TOTAL IN =     1612517.6250

          OUT:                                     OUT:
          ----                                     ----
             STORAGE =  1410226944.0000               STORAGE =     1398337.2500
       CONSTANT HEAD =           0.0000         CONSTANT HEAD =           0.0000
       RIVER LEAKAGE =    16054376.0000         RIVER LEAKAGE =      214415.9688
            RECHARGE =           0.0000              RECHARGE =           0.0000

           TOTAL OUT =  1426281344.0000             TOTAL OUT =     1612753.2500

            IN - OUT =     -422528.0000              IN - OUT =        -235.6250

 PERCENT DISCREPANCY =          -0.03     PERCENT DISCREPANCY =          -0.01






         TIME SUMMARY AT END OF TIME STEP  283 IN STRESS PERIOD    1
                    SECONDS     MINUTES      HOURS       DAYS        YEARS
                    -----------------------------------------------------------
   TIME STEP LENGTH  86400.      1440.0      24.000      1.0000     2.73785E-03
 STRESS PERIOD TIME 2.44512E+07 4.07520E+05  6792.0      283.00     0.77481    
         TOTAL TIME 2.44512E+07 4.07520E+05  6792.0      283.00     0.77481    
1
 
 SOLVING FOR HEAD 
                                                   Max.-Head-Change                        Max.-Flux-Residual
  Residual-Control   Outer-Iter.   Inner-Iter.     Column Row Layer    Max.-Head-Change    Column Row Layer    Max.-Flux-Residual            L2-New               L2-Old           Solver-Max-Delh
          0                 1           2            54   44     1       0.2221314974E+01      47   79    1       0.3615370865E+05      0.1755510841E+06      0.2719767337E+03      0.2221314974E+01
          0                 2           2            54   44     1      -0.1918411048E+00      47   79    1      -0.3615393240E+04      0.1755514271E+05      0.1755510841E+06     -0.1918411048E+00
          0                 3           2            26   78     1       0.3390863580E-01      47   79    1      -0.1807697367E+03      0.8777811537E+03      0.1755514271E+05      0.3390863580E-01

    ------------------------------------------------
       NWT REQUIRED            3 OUTER ITERATIONS 
       AND A TOTAL OF          6 INNER ITERATIONS.
    ------------------------------------------------

 OUTPUT CONTROL FOR STRESS PERIOD    1   TIME STEP  284
    SAVE HEAD FOR ALL LAYERS
    SAVE DRAWDOWN FOR ALL LAYERS
    SAVE BUDGET
    PRINT BUDGET
 UBDSV1 SAVING "         STORAGE" ON UNIT   9 AT TIME STEP284, STRESS PERIOD   1
 UBDSV2 SAVING "   CONSTANT HEAD" ON UNIT   9 AT TIME STEP284, STRESS PERIOD   1
 UBDSV1 SAVING "FLOW RIGHT FACE " ON UNIT   9 AT TIME STEP284, STRESS PERIOD   1
 UBDSV1 SAVING "FLOW FRONT FACE " ON UNIT   9 AT TIME STEP284, STRESS PERIOD   1
 UBDSV4 SAVING "   RIVER LEAKAGE" ON UNIT   9 AT TIME STEP284, STRESS PERIOD   1
 UBDSV3 SAVING "        RECHARGE" ON UNIT   9 AT TIME STEP284, STRESS PERIOD   1

 HEAD WILL BE SAVED ON UNIT   37 AT END OF TIME STEP  284, STRESS PERIOD    1

 DRAWDOWN WILL BE SAVED ON UNIT   38 AT END OF TIME STEP  284, STRESS PERIOD    1
1
  VOLUMETRIC BUDGET FOR ENTIRE MODEL AT END OF TIME STEP  284, STRESS PERIOD   1
  ------------------------------------------------------------------------------

     CUMULATIVE VOLUMES      L**3       RATES FOR THIS TIME STEP      L**3/T
     ------------------                 ------------------------

           IN:                                      IN:
           ---                                      ---
             STORAGE =   242193744.0000               STORAGE =      760408.3125
       CONSTANT HEAD =           0.0000         CONSTANT HEAD =           0.0000
       RIVER LEAKAGE =  1180045184.0000         RIVER LEAKAGE =      818632.1250
            RECHARGE =     5280861.0000              RECHARGE =       81924.2656

            TOTAL IN =  1427519872.0000              TOTAL IN =     1660964.7500

          OUT:                                     OUT:
          ----                                     ----
             STORAGE =  1411689856.0000               STORAGE =     1462928.2500
       CONSTANT HEAD =           0.0000         CONSTANT HEAD =           0.0000
       RIVER LEAKAGE =    16252793.0000         RIVER LEAKAGE =      198416.5156
            RECHARGE =           0.0000              RECHARGE =           0.0000

           TOTAL OUT =  1427942656.0000             TOTAL OUT =     1661344.7500

            IN - OUT =     -422784.0000              IN - OUT =        -380.0000

 PERCENT DISCREPANCY =          -0.03     PERCENT DISCREPANCY =          -0.02






         TIME SUMMARY AT END OF TIME STEP  284 IN STRESS PERIOD    1
                    SECONDS     MINUTES      HOURS       DAYS        YEARS
                    -----------------------------------------------------------
   TIME STEP LENGTH  86400.      1440.0      24.000      1.0000     2.73785E-03
 STRESS PERIOD TIME 2.45376E+07 4.08960E+05  6816.0      284.00     0.77755    
         TOTAL TIME 2.45376E+07 4.08960E+05  6816.0      284.00     0.77755    
1
 
 SOLVING FOR HEAD 
                                                   Max.-Head-Change                        Max.-Flux-Residual
  Residual-Control   Outer-Iter.   Inner-Iter.     Column Row Layer    Max.-Head-Change    Column Row Layer    Max.-Flux-Residual            L2-New               L2-Old           Solver-Max-Delh
          0                 1           2            54   44     1       0.2512377079E+01      26  115    1      -0.8217577083E+05      0.2925994872E+06      0.4436171771E+02      0.2512377079E+01
          0                 2           2            36   75     1      -0.9125457306E+01      26  115    1       0.8217579874E+04      0.2942713780E+05      0.2925994872E+06     -0.9125457306E+01
          1                 2           0            36   75     1      -0.6387820005E+01      36   75    1       0.9072038184E+07      0.9072039344E+07      0.2942713780E+05     -0.9125457306E+01
          2                 2           0            36   75     1      -0.4471473928E+01      36   75    1       0.6331671763E+07      0.6331679358E+07      0.9072039344E+07     -0.9125457306E+01
          3                 2           0            36   75     1      -0.3130031696E+01      36   75    1       0.4413192419E+07      0.4413219298E+07      0.6331679358E+07     -0.9125457306E+01
          4                 2           0            36   75     1      -0.2191022150E+01      36   75    1       0.3070147690E+07      0.3070209528E+07      0.4413219298E+07     -0.9125457306E+01
          5                 2           0            36   75     1      -0.1533715479E+01      36   75    1       0.2129962883E+07      0.2130080482E+07      0.3070209528E+07     -0.9125457306E+01
          6                 2           0            36   75     1      -0.1073600817E+01      36   75    1       0.1471807307E+07      0.1472009927E+07      0.2130080482E+07     -0.9125457306E+01
          7                 2           0            36   75     1      -0.7515205590E+00      36   75    1       0.1011085563E+07      0.1011416113E+07      0.1472009927E+07     -0.9125457306E+01
          8                 2           0            36   75     1      -0.5260643824E+00      36   75    1       0.6885740518E+06      0.6890977910E+06      0.1011416113E+07     -0.9125457306E+01
                                                   Max.-Head-Change                        Max.-Flux-Residual
  Residual-Control   Outer-Iter.   Inner-Iter.     Column Row Layer    Max.-Head-Change    Column Row Layer    Max.-Flux-Residual            L2-New               L2-Old           Solver-Max-Delh
          9                 2           0            36   75     1      -0.3682450614E+00      36   75    1       0.4628129129E+06      0.4636331433E+06      0.6890977910E+06     -0.9125457306E+01
         10                 2           0            36   75     1      -0.2577715386E+00      36   75    1       0.3047786068E+06      0.3060675831E+06      0.4636331433E+06     -0.9125457306E+01
         11                 2           0            36   75     1      -0.1804400739E+00      36   75    1       0.1941538537E+06      0.1962208305E+06      0.3060675831E+06     -0.9125457306E+01
         12                 2           0            36   75     1      -0.1263080496E+00      36   75    1       0.1167161649E+06      0.1201806021E+06      0.1962208305E+06     -0.9125457306E+01
         13                 2           0            36   75     1      -0.8841563322E-01      36   75    1       0.6250960580E+05      0.6883248071E+05      0.1201806021E+06     -0.9125457306E+01
         14                 2           0            36   75     1      -0.6189094220E-01      36   75    1       0.2456492795E+05      0.3795724953E+05      0.6883248071E+05     -0.9125457306E+01
          0                 3           2            53   44     1       0.9785952694E+00      26  115    1       0.8164633038E+04      0.2908814854E+05      0.3795724953E+05      0.9785952694E+00
          0                 4           2            53   44     1      -0.8451504893E-01      26  115    1       0.4081498182E+03      0.1464350242E+04      0.2908814854E+05     -0.8451504893E-01

    ------------------------------------------------
       NWT REQUIRED            4 OUTER ITERATIONS 
       AND A TOTAL OF          8 INNER ITERATIONS.
    ------------------------------------------------

 OUTPUT CONTROL FOR STRESS PERIOD    1   TIME STEP  285
    SAVE HEAD FOR ALL LAYERS
    SAVE DRAWDOWN FOR ALL LAYERS
    SAVE BUDGET
    PRINT BUDGET
 UBDSV1 SAVING "         STORAGE" ON UNIT   9 AT TIME STEP285, STRESS PERIOD   1
 UBDSV2 SAVING "   CONSTANT HEAD" ON UNIT   9 AT TIME STEP285, STRESS PERIOD   1
 UBDSV1 SAVING "FLOW RIGHT FACE " ON UNIT   9 AT TIME STEP285, STRESS PERIOD   1
 UBDSV1 SAVING "FLOW FRONT FACE " ON UNIT   9 AT TIME STEP285, STRESS PERIOD   1
 UBDSV4 SAVING "   RIVER LEAKAGE" ON UNIT   9 AT TIME STEP285, STRESS PERIOD   1
 UBDSV3 SAVING "        RECHARGE" ON UNIT   9 AT TIME STEP285, STRESS PERIOD   1

 HEAD WILL BE SAVED ON UNIT   37 AT END OF TIME STEP  285, STRESS PERIOD    1

 DRAWDOWN WILL BE SAVED ON UNIT   38 AT END OF TIME STEP  285, STRESS PERIOD    1
1
  VOLUMETRIC BUDGET FOR ENTIRE MODEL AT END OF TIME STEP  285, STRESS PERIOD   1
  ------------------------------------------------------------------------------

     CUMULATIVE VOLUMES      L**3       RATES FOR THIS TIME STEP      L**3/T
     ------------------                 ------------------------

           IN:                                      IN:
           ---                                      ---
             STORAGE =   242961264.0000               STORAGE =      767524.6875
       CONSTANT HEAD =           0.0000         CONSTANT HEAD =           0.0000
       RIVER LEAKAGE =  1180569856.0000         RIVER LEAKAGE =      524686.5000
            RECHARGE =     5337120.5000              RECHARGE =       56259.2578

            TOTAL IN =  1428868224.0000              TOTAL IN =     1348470.5000

          OUT:                                     OUT:
          ----                                     ----
             STORAGE =  1412836736.0000               STORAGE =     1146874.5000
       CONSTANT HEAD =           0.0000         CONSTANT HEAD =           0.0000
       RIVER LEAKAGE =    16453816.0000         RIVER LEAKAGE =      201022.5625
            RECHARGE =           0.0000              RECHARGE =           0.0000

           TOTAL OUT =  1429290496.0000             TOTAL OUT =     1347897.0000

            IN - OUT =     -422272.0000              IN - OUT =         573.5000

 PERCENT DISCREPANCY =          -0.03     PERCENT DISCREPANCY =           0.04






         TIME SUMMARY AT END OF TIME STEP  285 IN STRESS PERIOD    1
                    SECONDS     MINUTES      HOURS       DAYS        YEARS
                    -----------------------------------------------------------
   TIME STEP LENGTH  86400.      1440.0      24.000      1.0000     2.73785E-03
 STRESS PERIOD TIME 2.46240E+07 4.10400E+05  6840.0      285.00     0.78029    
         TOTAL TIME 2.46240E+07 4.10400E+05  6840.0      285.00     0.78029    
1
 
 SOLVING FOR HEAD 
                                                   Max.-Head-Change                        Max.-Flux-Residual
  Residual-Control   Outer-Iter.   Inner-Iter.     Column Row Layer    Max.-Head-Change    Column Row Layer    Max.-Flux-Residual            L2-New               L2-Old           Solver-Max-Delh
          0                 1           2            54   44     1       0.2882211873E+01      47   79    1       0.3611363442E+05      0.1105764852E+06      0.7347086328E+02      0.2882211873E+01
          0                 2           2            54   44     1      -0.2489187732E+00      47   79    1      -0.3611385838E+04      0.1105768752E+05      0.1105764852E+06     -0.2489187732E+00
          0                 3           2            26   78     1       0.3189262187E-01      47   79    1      -0.1805693670E+03      0.5529213946E+03      0.1105768752E+05      0.3189262187E-01

    ------------------------------------------------
       NWT REQUIRED            3 OUTER ITERATIONS 
       AND A TOTAL OF          6 INNER ITERATIONS.
    ------------------------------------------------

 OUTPUT CONTROL FOR STRESS PERIOD    1   TIME STEP  286
    SAVE HEAD FOR ALL LAYERS
    SAVE DRAWDOWN FOR ALL LAYERS
    SAVE BUDGET
    PRINT BUDGET
 UBDSV1 SAVING "         STORAGE" ON UNIT   9 AT TIME STEP286, STRESS PERIOD   1
 UBDSV2 SAVING "   CONSTANT HEAD" ON UNIT   9 AT TIME STEP286, STRESS PERIOD   1
 UBDSV1 SAVING "FLOW RIGHT FACE " ON UNIT   9 AT TIME STEP286, STRESS PERIOD   1
 UBDSV1 SAVING "FLOW FRONT FACE " ON UNIT   9 AT TIME STEP286, STRESS PERIOD   1
 UBDSV4 SAVING "   RIVER LEAKAGE" ON UNIT   9 AT TIME STEP286, STRESS PERIOD   1
 UBDSV3 SAVING "        RECHARGE" ON UNIT   9 AT TIME STEP286, STRESS PERIOD   1

 HEAD WILL BE SAVED ON UNIT   37 AT END OF TIME STEP  286, STRESS PERIOD    1

 DRAWDOWN WILL BE SAVED ON UNIT   38 AT END OF TIME STEP  286, STRESS PERIOD    1
1
  VOLUMETRIC BUDGET FOR ENTIRE MODEL AT END OF TIME STEP  286, STRESS PERIOD   1
  ------------------------------------------------------------------------------

     CUMULATIVE VOLUMES      L**3       RATES FOR THIS TIME STEP      L**3/T
     ------------------                 ------------------------

           IN:                                      IN:
           ---                                      ---
             STORAGE =   243729664.0000               STORAGE =      768398.5000
       CONSTANT HEAD =           0.0000         CONSTANT HEAD =           0.0000
       RIVER LEAKAGE =  1181056128.0000         RIVER LEAKAGE =      486222.4062
            RECHARGE =     5378447.0000              RECHARGE =       41326.5547

            TOTAL IN =  1430164224.0000              TOTAL IN =     1295947.5000

          OUT:                                     OUT:
          ----                                     ----
             STORAGE =  1413934208.0000               STORAGE =     1097473.7500
       CONSTANT HEAD =           0.0000         CONSTANT HEAD =           0.0000
       RIVER LEAKAGE =    16652264.0000         RIVER LEAKAGE =      198447.9531
            RECHARGE =           0.0000              RECHARGE =           0.0000

           TOTAL OUT =  1430586496.0000             TOTAL OUT =     1295921.7500

            IN - OUT =     -422272.0000              IN - OUT =          25.7500

 PERCENT DISCREPANCY =          -0.03     PERCENT DISCREPANCY =           0.00






         TIME SUMMARY AT END OF TIME STEP  286 IN STRESS PERIOD    1
                    SECONDS     MINUTES      HOURS       DAYS        YEARS
                    -----------------------------------------------------------
   TIME STEP LENGTH  86400.      1440.0      24.000      1.0000     2.73785E-03
 STRESS PERIOD TIME 2.47104E+07 4.11840E+05  6864.0      286.00     0.78303    
         TOTAL TIME 2.47104E+07 4.11840E+05  6864.0      286.00     0.78303    
1
 
 SOLVING FOR HEAD 
                                                   Max.-Head-Change                        Max.-Flux-Residual
  Residual-Control   Outer-Iter.   Inner-Iter.     Column Row Layer    Max.-Head-Change    Column Row Layer    Max.-Flux-Residual            L2-New               L2-Old           Solver-Max-Delh
          0                 1           2            54   44     1       0.3272604003E+01      47   79    1       0.3609357155E+05      0.1065146334E+06      0.2837167941E+02      0.3272604003E+01
          0                 2           2            54   44     1      -0.2826346085E+00      47   79    1      -0.3609379526E+04      0.1065150213E+05      0.1065146334E+06     -0.2826346085E+00
          0                 3           2            26   78     1       0.3169874446E-01      47   79    1      -0.1804690511E+03      0.5326133557E+03      0.1065150213E+05      0.3169874446E-01

    ------------------------------------------------
       NWT REQUIRED            3 OUTER ITERATIONS 
       AND A TOTAL OF          6 INNER ITERATIONS.
    ------------------------------------------------

 OUTPUT CONTROL FOR STRESS PERIOD    1   TIME STEP  287
    SAVE HEAD FOR ALL LAYERS
    SAVE DRAWDOWN FOR ALL LAYERS
    SAVE BUDGET
    PRINT BUDGET
 UBDSV1 SAVING "         STORAGE" ON UNIT   9 AT TIME STEP287, STRESS PERIOD   1
 UBDSV2 SAVING "   CONSTANT HEAD" ON UNIT   9 AT TIME STEP287, STRESS PERIOD   1
 UBDSV1 SAVING "FLOW RIGHT FACE " ON UNIT   9 AT TIME STEP287, STRESS PERIOD   1
 UBDSV1 SAVING "FLOW FRONT FACE " ON UNIT   9 AT TIME STEP287, STRESS PERIOD   1
 UBDSV4 SAVING "   RIVER LEAKAGE" ON UNIT   9 AT TIME STEP287, STRESS PERIOD   1
 UBDSV3 SAVING "        RECHARGE" ON UNIT   9 AT TIME STEP287, STRESS PERIOD   1

 HEAD WILL BE SAVED ON UNIT   37 AT END OF TIME STEP  287, STRESS PERIOD    1

 DRAWDOWN WILL BE SAVED ON UNIT   38 AT END OF TIME STEP  287, STRESS PERIOD    1
1
  VOLUMETRIC BUDGET FOR ENTIRE MODEL AT END OF TIME STEP  287, STRESS PERIOD   1
  ------------------------------------------------------------------------------

     CUMULATIVE VOLUMES      L**3       RATES FOR THIS TIME STEP      L**3/T
     ------------------                 ------------------------

           IN:                                      IN:
           ---                                      ---
             STORAGE =   244499968.0000               STORAGE =      770307.0000
       CONSTANT HEAD =           0.0000         CONSTANT HEAD =           0.0000
       RIVER LEAKAGE =  1181520256.0000         RIVER LEAKAGE =      464131.6250
            RECHARGE =     5414044.0000              RECHARGE =       35596.9609

            TOTAL IN =  1431434240.0000              TOTAL IN =     1270035.6250

          OUT:                                     OUT:
          ----                                     ----
             STORAGE =  1415005952.0000               STORAGE =     1071704.7500
       CONSTANT HEAD =           0.0000         CONSTANT HEAD =           0.0000
       RIVER LEAKAGE =    16850590.0000         RIVER LEAKAGE =      198326.1719
            RECHARGE =           0.0000              RECHARGE =           0.0000

           TOTAL OUT =  1431856512.0000             TOTAL OUT =     1270030.8750

            IN - OUT =     -422272.0000              IN - OUT =           4.7500

 PERCENT DISCREPANCY =          -0.03     PERCENT DISCREPANCY =           0.00






         TIME SUMMARY AT END OF TIME STEP  287 IN STRESS PERIOD    1
                    SECONDS     MINUTES      HOURS       DAYS        YEARS
                    -----------------------------------------------------------
   TIME STEP LENGTH  86400.      1440.0      24.000      1.0000     2.73785E-03
 STRESS PERIOD TIME 2.47968E+07 4.13280E+05  6888.0      287.00     0.78576    
         TOTAL TIME 2.47968E+07 4.13280E+05  6888.0      287.00     0.78576    
1
 
 SOLVING FOR HEAD 
                                                   Max.-Head-Change                        Max.-Flux-Residual
  Residual-Control   Outer-Iter.   Inner-Iter.     Column Row Layer    Max.-Head-Change    Column Row Layer    Max.-Flux-Residual            L2-New               L2-Old           Solver-Max-Delh
          0                 1           2            54   44     1       0.3631923913E+01      47   79    1       0.3607343399E+05      0.1043318169E+06      0.2737992078E+02      0.3631923913E+01
          0                 2           2            54   44     1      -0.3136669408E+00      47   79    1      -0.3607365745E+04      0.1043322026E+05      0.1043318169E+06     -0.3136669408E+00
          0                 3           2            26   78     1       0.3161187213E-01      47   79    1      -0.1803683622E+03      0.5216999393E+03      0.1043322026E+05      0.3161187213E-01

    ------------------------------------------------
       NWT REQUIRED            3 OUTER ITERATIONS 
       AND A TOTAL OF          6 INNER ITERATIONS.
    ------------------------------------------------

 OUTPUT CONTROL FOR STRESS PERIOD    1   TIME STEP  288
    SAVE HEAD FOR ALL LAYERS
    SAVE DRAWDOWN FOR ALL LAYERS
    SAVE BUDGET
    PRINT BUDGET
 UBDSV1 SAVING "         STORAGE" ON UNIT   9 AT TIME STEP288, STRESS PERIOD   1
 UBDSV2 SAVING "   CONSTANT HEAD" ON UNIT   9 AT TIME STEP288, STRESS PERIOD   1
 UBDSV1 SAVING "FLOW RIGHT FACE " ON UNIT   9 AT TIME STEP288, STRESS PERIOD   1
 UBDSV1 SAVING "FLOW FRONT FACE " ON UNIT   9 AT TIME STEP288, STRESS PERIOD   1
 UBDSV4 SAVING "   RIVER LEAKAGE" ON UNIT   9 AT TIME STEP288, STRESS PERIOD   1
 UBDSV3 SAVING "        RECHARGE" ON UNIT   9 AT TIME STEP288, STRESS PERIOD   1

 HEAD WILL BE SAVED ON UNIT   37 AT END OF TIME STEP  288, STRESS PERIOD    1

 DRAWDOWN WILL BE SAVED ON UNIT   38 AT END OF TIME STEP  288, STRESS PERIOD    1
1
  VOLUMETRIC BUDGET FOR ENTIRE MODEL AT END OF TIME STEP  288, STRESS PERIOD   1
  ------------------------------------------------------------------------------

     CUMULATIVE VOLUMES      L**3       RATES FOR THIS TIME STEP      L**3/T
     ------------------                 ------------------------

           IN:                                      IN:
           ---                                      ---
             STORAGE =   245270784.0000               STORAGE =      770820.1875
       CONSTANT HEAD =           0.0000         CONSTANT HEAD =           0.0000
       RIVER LEAKAGE =  1181976832.0000         RIVER LEAKAGE =      456627.3750
            RECHARGE =     5448929.0000              RECHARGE =       34885.1250

            TOTAL IN =  1432696576.0000              TOTAL IN =     1262332.7500

          OUT:                                     OUT:
          ----                                     ----
             STORAGE =  1416069888.0000               STORAGE =     1063903.8750
       CONSTANT HEAD =           0.0000         CONSTANT HEAD =           0.0000
       RIVER LEAKAGE =    17049040.0000         RIVER LEAKAGE =      198450.2500
            RECHARGE =           0.0000              RECHARGE =           0.0000

           TOTAL OUT =  1433118976.0000             TOTAL OUT =     1262354.1250

            IN - OUT =     -422400.0000              IN - OUT =         -21.3750

 PERCENT DISCREPANCY =          -0.03     PERCENT DISCREPANCY =          -0.00






         TIME SUMMARY AT END OF TIME STEP  288 IN STRESS PERIOD    1
                    SECONDS     MINUTES      HOURS       DAYS        YEARS
                    -----------------------------------------------------------
   TIME STEP LENGTH  86400.      1440.0      24.000      1.0000     2.73785E-03
 STRESS PERIOD TIME 2.48832E+07 4.14720E+05  6912.0      288.00     0.78850    
         TOTAL TIME 2.48832E+07 4.14720E+05  6912.0      288.00     0.78850    
1
 
 SOLVING FOR HEAD 
                                                   Max.-Head-Change                        Max.-Flux-Residual
  Residual-Control   Outer-Iter.   Inner-Iter.     Column Row Layer    Max.-Head-Change    Column Row Layer    Max.-Flux-Residual            L2-New               L2-Old           Solver-Max-Delh
          0                 1           2            54   44     1       0.3919361327E+01      47   79    1       0.3605339360E+05      0.1042631096E+06      0.2684724874E+02      0.3919361327E+01
          0                 2           2            47   79     1       0.2739229260E+02      47   79    1       0.2178466103E+05      0.2388073079E+05      0.1042631096E+06      0.2739229260E+02
          1                 2           0            47   79     1       0.1917460449E+02      47   79    1      -0.7464592467E+06      0.7464620997E+06      0.2388073079E+05      0.2739229260E+02
          2                 2           0            47   79     1       0.1342222292E+02      47   79    1      -0.5148682126E+06      0.5148795354E+06      0.7464620997E+06      0.2739229260E+02
          3                 2           0            47   79     1       0.9395555882E+01      47   79    1      -0.3527880081E+06      0.3528267477E+06      0.5148795354E+06      0.2739229260E+02
          4                 2           0            47   79     1       0.6576889006E+01      47   79    1      -0.2395659803E+06      0.2396563734E+06      0.3528267477E+06      0.2739229260E+02
          5                 2           0            47   79     1       0.4603822225E+01      47   79    1      -0.1604899703E+06      0.1606670498E+06      0.2396563734E+06      0.2739229260E+02
          6                 2           0            47   79     1       0.3222675503E+01      47   79    1      -0.1051700856E+06      0.1054903824E+06      0.1606670498E+06      0.2739229260E+02
          7                 2           0            47   79     1       0.2255872814E+01      47   79    1      -0.6644617155E+05      0.6701148436E+05      0.1054903824E+06      0.2739229260E+02
          8                 2           0            47   79     1       0.1579110943E+01      47   79    1      -0.3934817247E+05      0.4036788869E+05      0.6701148436E+05      0.2739229260E+02
                                                   Max.-Head-Change                        Max.-Flux-Residual
  Residual-Control   Outer-Iter.   Inner-Iter.     Column Row Layer    Max.-Head-Change    Column Row Layer    Max.-Flux-Residual            L2-New               L2-Old           Solver-Max-Delh
          0                 3           2            47   79     1      -0.6921273699E+00      47   79    1      -0.2039903008E+05      0.2239672812E+05      0.4036788869E+05     -0.6921273699E+00
          0                 4           2            47   79     1      -0.3460682603E-01      47   79    1      -0.1019953942E+04      0.1119819162E+04      0.2239672812E+05     -0.3460682603E-01

    ------------------------------------------------
       NWT REQUIRED            4 OUTER ITERATIONS 
       AND A TOTAL OF          8 INNER ITERATIONS.
    ------------------------------------------------

 OUTPUT CONTROL FOR STRESS PERIOD    1   TIME STEP  289
    SAVE HEAD FOR ALL LAYERS
    SAVE DRAWDOWN FOR ALL LAYERS
    SAVE BUDGET
    PRINT BUDGET
 UBDSV1 SAVING "         STORAGE" ON UNIT   9 AT TIME STEP289, STRESS PERIOD   1
 UBDSV2 SAVING "   CONSTANT HEAD" ON UNIT   9 AT TIME STEP289, STRESS PERIOD   1
 UBDSV1 SAVING "FLOW RIGHT FACE " ON UNIT   9 AT TIME STEP289, STRESS PERIOD   1
 UBDSV1 SAVING "FLOW FRONT FACE " ON UNIT   9 AT TIME STEP289, STRESS PERIOD   1
 UBDSV4 SAVING "   RIVER LEAKAGE" ON UNIT   9 AT TIME STEP289, STRESS PERIOD   1
 UBDSV3 SAVING "        RECHARGE" ON UNIT   9 AT TIME STEP289, STRESS PERIOD   1

 HEAD WILL BE SAVED ON UNIT   37 AT END OF TIME STEP  289, STRESS PERIOD    1

 DRAWDOWN WILL BE SAVED ON UNIT   38 AT END OF TIME STEP  289, STRESS PERIOD    1
1
  VOLUMETRIC BUDGET FOR ENTIRE MODEL AT END OF TIME STEP  289, STRESS PERIOD   1
  ------------------------------------------------------------------------------

     CUMULATIVE VOLUMES      L**3       RATES FOR THIS TIME STEP      L**3/T
     ------------------                 ------------------------

           IN:                                      IN:
           ---                                      ---
             STORAGE =   246040624.0000               STORAGE =      769841.0000
       CONSTANT HEAD =           0.0000         CONSTANT HEAD =           0.0000
       RIVER LEAKAGE =  1182417536.0000         RIVER LEAKAGE =      440754.8125
            RECHARGE =     5484765.5000              RECHARGE =       35836.7227

            TOTAL IN =  1433942912.0000              TOTAL IN =     1246432.5000

          OUT:                                     OUT:
          ----                                     ----
             STORAGE =  1417117824.0000               STORAGE =     1047918.7500
       CONSTANT HEAD =           0.0000         CONSTANT HEAD =           0.0000
       RIVER LEAKAGE =    17247642.0000         RIVER LEAKAGE =      198602.9062
            RECHARGE =           0.0000              RECHARGE =           0.0000

           TOTAL OUT =  1434365440.0000             TOTAL OUT =     1246521.6250

            IN - OUT =     -422528.0000              IN - OUT =         -89.1250

 PERCENT DISCREPANCY =          -0.03     PERCENT DISCREPANCY =          -0.01






         TIME SUMMARY AT END OF TIME STEP  289 IN STRESS PERIOD    1
                    SECONDS     MINUTES      HOURS       DAYS        YEARS
                    -----------------------------------------------------------
   TIME STEP LENGTH  86400.      1440.0      24.000      1.0000     2.73785E-03
 STRESS PERIOD TIME 2.49696E+07 4.16160E+05  6936.0      289.00     0.79124    
         TOTAL TIME 2.49696E+07 4.16160E+05  6936.0      289.00     0.79124    
1
 
 SOLVING FOR HEAD 
                                                   Max.-Head-Change                        Max.-Flux-Residual
  Residual-Control   Outer-Iter.   Inner-Iter.     Column Row Layer    Max.-Head-Change    Column Row Layer    Max.-Flux-Residual            L2-New               L2-Old           Solver-Max-Delh
          0                 1           2            54   44     1       0.4111136458E+01      36   86    1       0.3257854055E+05      0.9893549303E+05      0.5633853635E+02      0.4111136458E+01
          0                 2           2            54   44     1      -0.3550537216E+00      36   86    1      -0.3257888706E+04      0.9888728193E+04      0.9893549303E+05     -0.3550537216E+00
          1                 2           0            54   44     1      -0.2485376009E+00      28  113    1       0.2792327000E+06      0.2792331379E+06      0.9888728193E+04     -0.3550537216E+00
          2                 2           0            54   44     1      -0.1739763177E+00      28  113    1       0.1953605632E+06      0.1953886408E+06      0.2792331379E+06     -0.3550537216E+00
          3                 2           0            54   44     1      -0.1217834203E+00      28  113    1       0.1366499012E+06      0.1367520590E+06      0.1953886408E+06     -0.3550537216E+00
          4                 2           0            54   44     1      -0.8524839276E-01      28  113    1       0.9555235656E+05      0.9578457475E+05      0.1367520590E+06     -0.3550537216E+00
          5                 2           0            54   44     1      -0.5967387392E-01      28  113    1       0.6678403567E+05      0.6721874400E+05      0.9578457475E+05     -0.3550537216E+00
          6                 2           0            54   44     1      -0.4177171103E-01      28  113    1       0.4664619172E+05      0.4738043132E+05      0.6721874400E+05     -0.3550537216E+00
          7                 2           0            54   44     1      -0.2924019722E-01      28  113    1       0.3254969155E+05      0.3371372769E+05      0.4738043132E+05     -0.3550537216E+00
          8                 2           0            54   44     1      -0.2046813771E-01      28  113    1       0.2268213688E+05      0.2444474897E+05      0.3371372769E+05     -0.3550537216E+00
                                                   Max.-Head-Change                        Max.-Flux-Residual
  Residual-Control   Outer-Iter.   Inner-Iter.     Column Row Layer    Max.-Head-Change    Column Row Layer    Max.-Flux-Residual            L2-New               L2-Old           Solver-Max-Delh
          9                 2           0            54   44     1      -0.1432769615E-01      28  113    1       0.1577484642E+05      0.1833565879E+05      0.2444474897E+05     -0.3550537216E+00
         10                 2           0            54   44     1      -0.1002938714E-01      28  113    1       0.1093974204E+05      0.1449453629E+05      0.1833565879E+05     -0.3550537216E+00
         11                 2           0            54   44     1      -0.7020570875E-02      28  113    1       0.7555168476E+04      0.1223395759E+05      0.1449453629E+05     -0.3550537216E+00
         12                 2           0            54   44     1      -0.4914399529E-02      28  113    1       0.5185966751E+04      0.1100098416E+05      0.1223395759E+05     -0.3550537216E+00
          0                 3           2            54   44     1      -0.3503887305E+00      28  113    1       0.3527525438E+04      0.1037570022E+05      0.1100098416E+05     -0.3503887305E+00
          0                 4           2            26   78     1       0.3151162503E-01      28  113    1       0.6261452069E+03      0.7937449439E+03      0.1037570022E+05      0.3151162503E-01

    ------------------------------------------------
       NWT REQUIRED            4 OUTER ITERATIONS 
       AND A TOTAL OF          8 INNER ITERATIONS.
    ------------------------------------------------

 OUTPUT CONTROL FOR STRESS PERIOD    1   TIME STEP  290
    SAVE HEAD FOR ALL LAYERS
    SAVE DRAWDOWN FOR ALL LAYERS
    SAVE BUDGET
    PRINT BUDGET
 UBDSV1 SAVING "         STORAGE" ON UNIT   9 AT TIME STEP290, STRESS PERIOD   1
 UBDSV2 SAVING "   CONSTANT HEAD" ON UNIT   9 AT TIME STEP290, STRESS PERIOD   1
 UBDSV1 SAVING "FLOW RIGHT FACE " ON UNIT   9 AT TIME STEP290, STRESS PERIOD   1
 UBDSV1 SAVING "FLOW FRONT FACE " ON UNIT   9 AT TIME STEP290, STRESS PERIOD   1
 UBDSV4 SAVING "   RIVER LEAKAGE" ON UNIT   9 AT TIME STEP290, STRESS PERIOD   1
 UBDSV3 SAVING "        RECHARGE" ON UNIT   9 AT TIME STEP290, STRESS PERIOD   1

 HEAD WILL BE SAVED ON UNIT   37 AT END OF TIME STEP  290, STRESS PERIOD    1

 DRAWDOWN WILL BE SAVED ON UNIT   38 AT END OF TIME STEP  290, STRESS PERIOD    1
1
  VOLUMETRIC BUDGET FOR ENTIRE MODEL AT END OF TIME STEP  290, STRESS PERIOD   1
  ------------------------------------------------------------------------------

     CUMULATIVE VOLUMES      L**3       RATES FOR THIS TIME STEP      L**3/T
     ------------------                 ------------------------

           IN:                                      IN:
           ---                                      ---
             STORAGE =   246810640.0000               STORAGE =      770008.5625
       CONSTANT HEAD =           0.0000         CONSTANT HEAD =           0.0000
       RIVER LEAKAGE =  1182843776.0000         RIVER LEAKAGE =      426209.3125
            RECHARGE =     5521582.0000              RECHARGE =       36816.3320

            TOTAL IN =  1435175936.0000              TOTAL IN =     1233034.2500

          OUT:                                     OUT:
          ----                                     ----
             STORAGE =  1418151936.0000               STORAGE =     1034102.3750
       CONSTANT HEAD =           0.0000         CONSTANT HEAD =           0.0000
       RIVER LEAKAGE =    17446492.0000         RIVER LEAKAGE =      198850.3438
            RECHARGE =           0.0000              RECHARGE =           0.0000

           TOTAL OUT =  1435598464.0000             TOTAL OUT =     1232952.7500

            IN - OUT =     -422528.0000              IN - OUT =          81.5000

 PERCENT DISCREPANCY =          -0.03     PERCENT DISCREPANCY =           0.01






         TIME SUMMARY AT END OF TIME STEP  290 IN STRESS PERIOD    1
                    SECONDS     MINUTES      HOURS       DAYS        YEARS
                    -----------------------------------------------------------
   TIME STEP LENGTH  86400.      1440.0      24.000      1.0000     2.73785E-03
 STRESS PERIOD TIME 2.50560E+07 4.17600E+05  6960.0      290.00     0.79398    
         TOTAL TIME 2.50560E+07 4.17600E+05  6960.0      290.00     0.79398    
1
 
 SOLVING FOR HEAD 
                                                   Max.-Head-Change                        Max.-Flux-Residual
  Residual-Control   Outer-Iter.   Inner-Iter.     Column Row Layer    Max.-Head-Change    Column Row Layer    Max.-Flux-Residual            L2-New               L2-Old           Solver-Max-Delh
          0                 1           2            54   44     1       0.4199782209E+01      36   86    1       0.3255308468E+05      0.9772210462E+05      0.1139553969E+03      0.4199782209E+01
          0                 2           2            28  113     1       0.7035379144E+01      36   86    1      -0.3255343064E+04      0.1026160654E+05      0.9772210462E+05      0.7035379144E+01
          1                 2           0            28  113     1       0.4924765317E+01      28  113    1      -0.3410909878E+06      0.3410913723E+06      0.1026160654E+05      0.7035379144E+01
          2                 2           0            28  113     1       0.3447335663E+01      28  113    1      -0.2363959502E+06      0.2364186267E+06      0.3410913723E+06      0.7035379144E+01
          3                 2           0            28  113     1       0.2413134923E+01      28  113    1      -0.1631094283E+06      0.1631929770E+06      0.2364186267E+06      0.7035379144E+01
          4                 2           0            28  113     1       0.1689194417E+01      28  113    1      -0.1118088654E+06      0.1120025893E+06      0.1631929770E+06      0.7035379144E+01
          5                 2           0            28  113     1       0.1182436072E+01      28  113    1      -0.7589847273E+05      0.7627198735E+05      0.1120025893E+06      0.7035379144E+01
          6                 2           0            28  113     1       0.8277052363E+00      28  113    1      -0.5076119864E+05      0.5142040400E+05      0.7627198735E+05      0.7035379144E+01
          7                 2           0            28  113     1       0.5793936555E+00      28  113    1      -0.3316510726E+05      0.3428088362E+05      0.5142040400E+05      0.7035379144E+01
          8                 2           0            28  113     1       0.4055755520E+00      28  113    1      -0.2084784359E+05      0.2270847463E+05      0.3428088362E+05      0.7035379144E+01
                                                   Max.-Head-Change                        Max.-Flux-Residual
  Residual-Control   Outer-Iter.   Inner-Iter.     Column Row Layer    Max.-Head-Change    Column Row Layer    Max.-Flux-Residual            L2-New               L2-Old           Solver-Max-Delh
          9                 2           0            28  113     1       0.2839028815E+00      28  113    1      -0.1222575921E+05      0.1531960646E+05      0.2270847463E+05      0.7035379144E+01
          0                 3           2            54   44     1      -0.3488084112E+00      28  113    1      -0.6190300272E+04      0.1124849931E+05      0.1531960646E+05     -0.3488084112E+00
          0                 4           2            26   78     1       0.3146888570E-01      28  113    1      -0.3095142362E+03      0.5623819290E+03      0.1124849931E+05      0.3146888570E-01

    ------------------------------------------------
       NWT REQUIRED            4 OUTER ITERATIONS 
       AND A TOTAL OF          8 INNER ITERATIONS.
    ------------------------------------------------

 OUTPUT CONTROL FOR STRESS PERIOD    1   TIME STEP  291
    SAVE HEAD FOR ALL LAYERS
    SAVE DRAWDOWN FOR ALL LAYERS
    SAVE BUDGET
    PRINT BUDGET
 UBDSV1 SAVING "         STORAGE" ON UNIT   9 AT TIME STEP291, STRESS PERIOD   1
 UBDSV2 SAVING "   CONSTANT HEAD" ON UNIT   9 AT TIME STEP291, STRESS PERIOD   1
 UBDSV1 SAVING "FLOW RIGHT FACE " ON UNIT   9 AT TIME STEP291, STRESS PERIOD   1
 UBDSV1 SAVING "FLOW FRONT FACE " ON UNIT   9 AT TIME STEP291, STRESS PERIOD   1
 UBDSV4 SAVING "   RIVER LEAKAGE" ON UNIT   9 AT TIME STEP291, STRESS PERIOD   1
 UBDSV3 SAVING "        RECHARGE" ON UNIT   9 AT TIME STEP291, STRESS PERIOD   1

 HEAD WILL BE SAVED ON UNIT   37 AT END OF TIME STEP  291, STRESS PERIOD    1

 DRAWDOWN WILL BE SAVED ON UNIT   38 AT END OF TIME STEP  291, STRESS PERIOD    1
1
  VOLUMETRIC BUDGET FOR ENTIRE MODEL AT END OF TIME STEP  291, STRESS PERIOD   1
  ------------------------------------------------------------------------------

     CUMULATIVE VOLUMES      L**3       RATES FOR THIS TIME STEP      L**3/T
     ------------------                 ------------------------

           IN:                                      IN:
           ---                                      ---
             STORAGE =   247580272.0000               STORAGE =      769628.2500
       CONSTANT HEAD =           0.0000         CONSTANT HEAD =           0.0000
       RIVER LEAKAGE =  1183266688.0000         RIVER LEAKAGE =      422899.6562
            RECHARGE =     5558817.0000              RECHARGE =       37234.8594

            TOTAL IN =  1436405760.0000              TOTAL IN =     1229762.7500

          OUT:                                     OUT:
          ----                                     ----
             STORAGE =  1419182336.0000               STORAGE =     1030408.5000
       CONSTANT HEAD =           0.0000         CONSTANT HEAD =           0.0000
       RIVER LEAKAGE =    17645892.0000         RIVER LEAKAGE =      199399.8438
            RECHARGE =           0.0000              RECHARGE =           0.0000

           TOTAL OUT =  1436828288.0000             TOTAL OUT =     1229808.3750

            IN - OUT =     -422528.0000              IN - OUT =         -45.6250

 PERCENT DISCREPANCY =          -0.03     PERCENT DISCREPANCY =          -0.00






         TIME SUMMARY AT END OF TIME STEP  291 IN STRESS PERIOD    1
                    SECONDS     MINUTES      HOURS       DAYS        YEARS
                    -----------------------------------------------------------
   TIME STEP LENGTH  86400.      1440.0      24.000      1.0000     2.73785E-03
 STRESS PERIOD TIME 2.51424E+07 4.19040E+05  6984.0      291.00     0.79671    
         TOTAL TIME 2.51424E+07 4.19040E+05  6984.0      291.00     0.79671    
1
 
 SOLVING FOR HEAD 
                                                   Max.-Head-Change                        Max.-Flux-Residual
  Residual-Control   Outer-Iter.   Inner-Iter.     Column Row Layer    Max.-Head-Change    Column Row Layer    Max.-Flux-Residual            L2-New               L2-Old           Solver-Max-Delh
          0                 1           2            54   44     1       0.4191989275E+01      36   86    1       0.3252759916E+05      0.9763785138E+05      0.2881782953E+02      0.4191989275E+01
          0                 2           2            54   44     1      -0.3620365263E+00      36   86    1      -0.3252794447E+04      0.9763818263E+04      0.9763785138E+05     -0.3620365263E+00

    ------------------------------------------------
       NWT REQUIRED            2 OUTER ITERATIONS 
       AND A TOTAL OF          4 INNER ITERATIONS.
    ------------------------------------------------

 OUTPUT CONTROL FOR STRESS PERIOD    1   TIME STEP  292
    SAVE HEAD FOR ALL LAYERS
    SAVE DRAWDOWN FOR ALL LAYERS
    SAVE BUDGET
    PRINT BUDGET
 UBDSV1 SAVING "         STORAGE" ON UNIT   9 AT TIME STEP292, STRESS PERIOD   1
 UBDSV2 SAVING "   CONSTANT HEAD" ON UNIT   9 AT TIME STEP292, STRESS PERIOD   1
 UBDSV1 SAVING "FLOW RIGHT FACE " ON UNIT   9 AT TIME STEP292, STRESS PERIOD   1
 UBDSV1 SAVING "FLOW FRONT FACE " ON UNIT   9 AT TIME STEP292, STRESS PERIOD   1
 UBDSV4 SAVING "   RIVER LEAKAGE" ON UNIT   9 AT TIME STEP292, STRESS PERIOD   1
 UBDSV3 SAVING "        RECHARGE" ON UNIT   9 AT TIME STEP292, STRESS PERIOD   1

 HEAD WILL BE SAVED ON UNIT   37 AT END OF TIME STEP  292, STRESS PERIOD    1

 DRAWDOWN WILL BE SAVED ON UNIT   38 AT END OF TIME STEP  292, STRESS PERIOD    1
1
  VOLUMETRIC BUDGET FOR ENTIRE MODEL AT END OF TIME STEP  292, STRESS PERIOD   1
  ------------------------------------------------------------------------------

     CUMULATIVE VOLUMES      L**3       RATES FOR THIS TIME STEP      L**3/T
     ------------------                 ------------------------

           IN:                                      IN:
           ---                                      ---
             STORAGE =   248353056.0000               STORAGE =      772777.2500
       CONSTANT HEAD =           0.0000         CONSTANT HEAD =           0.0000
       RIVER LEAKAGE =  1183690368.0000         RIVER LEAKAGE =      423648.0000
            RECHARGE =     5595792.0000              RECHARGE =       36975.0234

            TOTAL IN =  1437639168.0000              TOTAL IN =     1233400.2500

          OUT:                                     OUT:
          ----                                     ----
             STORAGE =  1420217344.0000               STORAGE =     1035070.3750
       CONSTANT HEAD =           0.0000         CONSTANT HEAD =           0.0000
       RIVER LEAKAGE =    17845520.0000         RIVER LEAKAGE =      199627.2969
            RECHARGE =           0.0000              RECHARGE =           0.0000

           TOTAL OUT =  1438062848.0000             TOTAL OUT =     1234697.6250

            IN - OUT =     -423680.0000              IN - OUT =       -1297.3750

 PERCENT DISCREPANCY =          -0.03     PERCENT DISCREPANCY =          -0.11






         TIME SUMMARY AT END OF TIME STEP  292 IN STRESS PERIOD    1
                    SECONDS     MINUTES      HOURS       DAYS        YEARS
                    -----------------------------------------------------------
   TIME STEP LENGTH  86400.      1440.0      24.000      1.0000     2.73785E-03
 STRESS PERIOD TIME 2.52288E+07 4.20480E+05  7008.0      292.00     0.79945    
         TOTAL TIME 2.52288E+07 4.20480E+05  7008.0      292.00     0.79945    
1
 
 SOLVING FOR HEAD 
                                                   Max.-Head-Change                        Max.-Flux-Residual
  Residual-Control   Outer-Iter.   Inner-Iter.     Column Row Layer    Max.-Head-Change    Column Row Layer    Max.-Flux-Residual            L2-New               L2-Old           Solver-Max-Delh
          0                 1           2            54   44     1       0.4104703980E+01      36   86    1       0.3250199702E+05      0.9755069411E+05      0.4882320535E+03      0.4104703980E+01
          0                 2           2            37   37     1       0.1929785652E+01      36   86    1      -0.3250234179E+04      0.9737245709E+04      0.9755069411E+05      0.1929785652E+01
          1                 2           0            37   37     1       0.1350849933E+01      37   37    1      -0.1115969058E+05      0.1117029334E+05      0.9737245709E+04      0.1929785652E+01
          0                 3           2            37   37     1      -0.1146722907E+01      37   37    1      -0.7542278159E+04      0.8216589317E+04      0.1117029334E+05     -0.1146722907E+01
          0                 4           2            37   37     1      -0.5733671985E-01      37   37    1      -0.3771137169E+03      0.4108651565E+03      0.8216589317E+04     -0.5733671985E-01

    ------------------------------------------------
       NWT REQUIRED            4 OUTER ITERATIONS 
       AND A TOTAL OF          8 INNER ITERATIONS.
    ------------------------------------------------

 OUTPUT CONTROL FOR STRESS PERIOD    1   TIME STEP  293
    SAVE HEAD FOR ALL LAYERS
    SAVE DRAWDOWN FOR ALL LAYERS
    SAVE BUDGET
    PRINT BUDGET
 UBDSV1 SAVING "         STORAGE" ON UNIT   9 AT TIME STEP293, STRESS PERIOD   1
 UBDSV2 SAVING "   CONSTANT HEAD" ON UNIT   9 AT TIME STEP293, STRESS PERIOD   1
 UBDSV1 SAVING "FLOW RIGHT FACE " ON UNIT   9 AT TIME STEP293, STRESS PERIOD   1
 UBDSV1 SAVING "FLOW FRONT FACE " ON UNIT   9 AT TIME STEP293, STRESS PERIOD   1
 UBDSV4 SAVING "   RIVER LEAKAGE" ON UNIT   9 AT TIME STEP293, STRESS PERIOD   1
 UBDSV3 SAVING "        RECHARGE" ON UNIT   9 AT TIME STEP293, STRESS PERIOD   1

 HEAD WILL BE SAVED ON UNIT   37 AT END OF TIME STEP  293, STRESS PERIOD    1

 DRAWDOWN WILL BE SAVED ON UNIT   38 AT END OF TIME STEP  293, STRESS PERIOD    1
1
  VOLUMETRIC BUDGET FOR ENTIRE MODEL AT END OF TIME STEP  293, STRESS PERIOD   1
  ------------------------------------------------------------------------------

     CUMULATIVE VOLUMES      L**3       RATES FOR THIS TIME STEP      L**3/T
     ------------------                 ------------------------

           IN:                                      IN:
           ---                                      ---
             STORAGE =   249121696.0000               STORAGE =      768642.5000
       CONSTANT HEAD =           0.0000         CONSTANT HEAD =           0.0000
       RIVER LEAKAGE =  1184113024.0000         RIVER LEAKAGE =      422690.6250
            RECHARGE =     5631911.0000              RECHARGE =       36118.8477

            TOTAL IN =  1438866560.0000              TOTAL IN =     1227452.0000

          OUT:                                     OUT:
          ----                                     ----
             STORAGE =  1421245312.0000               STORAGE =     1027983.3750
       CONSTANT HEAD =           0.0000         CONSTANT HEAD =           0.0000
       RIVER LEAKAGE =    18044998.0000         RIVER LEAKAGE =      199477.1406
            RECHARGE =           0.0000              RECHARGE =           0.0000

           TOTAL OUT =  1439290368.0000             TOTAL OUT =     1227460.5000

            IN - OUT =     -423808.0000              IN - OUT =          -8.5000

 PERCENT DISCREPANCY =          -0.03     PERCENT DISCREPANCY =          -0.00






         TIME SUMMARY AT END OF TIME STEP  293 IN STRESS PERIOD    1
                    SECONDS     MINUTES      HOURS       DAYS        YEARS
                    -----------------------------------------------------------
   TIME STEP LENGTH  86400.      1440.0      24.000      1.0000     2.73785E-03
 STRESS PERIOD TIME 2.53152E+07 4.21920E+05  7032.0      293.00     0.80219    
         TOTAL TIME 2.53152E+07 4.21920E+05  7032.0      293.00     0.80219    
1
 
 SOLVING FOR HEAD 
                                                   Max.-Head-Change                        Max.-Flux-Residual
  Residual-Control   Outer-Iter.   Inner-Iter.     Column Row Layer    Max.-Head-Change    Column Row Layer    Max.-Flux-Residual            L2-New               L2-Old           Solver-Max-Delh
          0                 1           2            54   44     1       0.3956383060E+01      36   86    1       0.3247644792E+05      0.9742429052E+05      0.4108651565E+03      0.3956383060E+01
          0                 2           2            54   44     1      -0.3416885981E+00      36   86    1      -0.3247679213E+04      0.9742458203E+04      0.9742429052E+05     -0.3416885981E+00

    ------------------------------------------------
       NWT REQUIRED            2 OUTER ITERATIONS 
       AND A TOTAL OF          4 INNER ITERATIONS.
    ------------------------------------------------

 OUTPUT CONTROL FOR STRESS PERIOD    1   TIME STEP  294
    SAVE HEAD FOR ALL LAYERS
    SAVE DRAWDOWN FOR ALL LAYERS
    SAVE BUDGET
    PRINT BUDGET
 UBDSV1 SAVING "         STORAGE" ON UNIT   9 AT TIME STEP294, STRESS PERIOD   1
 UBDSV2 SAVING "   CONSTANT HEAD" ON UNIT   9 AT TIME STEP294, STRESS PERIOD   1
 UBDSV1 SAVING "FLOW RIGHT FACE " ON UNIT   9 AT TIME STEP294, STRESS PERIOD   1
 UBDSV1 SAVING "FLOW FRONT FACE " ON UNIT   9 AT TIME STEP294, STRESS PERIOD   1
 UBDSV4 SAVING "   RIVER LEAKAGE" ON UNIT   9 AT TIME STEP294, STRESS PERIOD   1
 UBDSV3 SAVING "        RECHARGE" ON UNIT   9 AT TIME STEP294, STRESS PERIOD   1

 HEAD WILL BE SAVED ON UNIT   37 AT END OF TIME STEP  294, STRESS PERIOD    1

 DRAWDOWN WILL BE SAVED ON UNIT   38 AT END OF TIME STEP  294, STRESS PERIOD    1
1
  VOLUMETRIC BUDGET FOR ENTIRE MODEL AT END OF TIME STEP  294, STRESS PERIOD   1
  ------------------------------------------------------------------------------

     CUMULATIVE VOLUMES      L**3       RATES FOR THIS TIME STEP      L**3/T
     ------------------                 ------------------------

           IN:                                      IN:
           ---                                      ---
             STORAGE =   249893760.0000               STORAGE =      772066.6875
       CONSTANT HEAD =           0.0000         CONSTANT HEAD =           0.0000
       RIVER LEAKAGE =  1184528768.0000         RIVER LEAKAGE =      415782.1562
            RECHARGE =     5666712.0000              RECHARGE =       34800.7695

            TOTAL IN =  1440089216.0000              TOTAL IN =     1222649.6250

          OUT:                                     OUT:
          ----                                     ----
             STORAGE =  1422269952.0000               STORAGE =     1024648.6875
       CONSTANT HEAD =           0.0000         CONSTANT HEAD =           0.0000
       RIVER LEAKAGE =    18244230.0000         RIVER LEAKAGE =      199232.9062
            RECHARGE =           0.0000              RECHARGE =           0.0000

           TOTAL OUT =  1440514176.0000             TOTAL OUT =     1223881.6250

            IN - OUT =     -424960.0000              IN - OUT =       -1232.0000

 PERCENT DISCREPANCY =          -0.03     PERCENT DISCREPANCY =          -0.10






         TIME SUMMARY AT END OF TIME STEP  294 IN STRESS PERIOD    1
                    SECONDS     MINUTES      HOURS       DAYS        YEARS
                    -----------------------------------------------------------
   TIME STEP LENGTH  86400.      1440.0      24.000      1.0000     2.73785E-03
 STRESS PERIOD TIME 2.54016E+07 4.23360E+05  7056.0      294.00     0.80493    
         TOTAL TIME 2.54016E+07 4.23360E+05  7056.0      294.00     0.80493    
1
 
 SOLVING FOR HEAD 
                                                   Max.-Head-Change                        Max.-Flux-Residual
  Residual-Control   Outer-Iter.   Inner-Iter.     Column Row Layer    Max.-Head-Change    Column Row Layer    Max.-Flux-Residual            L2-New               L2-Old           Solver-Max-Delh
          0                 1           2            54   44     1       0.3764578741E+01      36   86    1       0.3245080406E+05      0.9762858905E+05      0.4871639275E+03      0.3764578741E+01
          0                 2           2            54   44     1      -0.3251235901E+00      36   86    1      -0.3245114674E+04      0.9762887575E+04      0.9762858905E+05     -0.3251235901E+00

    ------------------------------------------------
       NWT REQUIRED            2 OUTER ITERATIONS 
       AND A TOTAL OF          4 INNER ITERATIONS.
    ------------------------------------------------

 OUTPUT CONTROL FOR STRESS PERIOD    1   TIME STEP  295
    SAVE HEAD FOR ALL LAYERS
    SAVE DRAWDOWN FOR ALL LAYERS
    SAVE BUDGET
    PRINT BUDGET
 UBDSV1 SAVING "         STORAGE" ON UNIT   9 AT TIME STEP295, STRESS PERIOD   1
 UBDSV2 SAVING "   CONSTANT HEAD" ON UNIT   9 AT TIME STEP295, STRESS PERIOD   1
 UBDSV1 SAVING "FLOW RIGHT FACE " ON UNIT   9 AT TIME STEP295, STRESS PERIOD   1
 UBDSV1 SAVING "FLOW FRONT FACE " ON UNIT   9 AT TIME STEP295, STRESS PERIOD   1
 UBDSV4 SAVING "   RIVER LEAKAGE" ON UNIT   9 AT TIME STEP295, STRESS PERIOD   1
 UBDSV3 SAVING "        RECHARGE" ON UNIT   9 AT TIME STEP295, STRESS PERIOD   1

 HEAD WILL BE SAVED ON UNIT   37 AT END OF TIME STEP  295, STRESS PERIOD    1

 DRAWDOWN WILL BE SAVED ON UNIT   38 AT END OF TIME STEP  295, STRESS PERIOD    1
1
  VOLUMETRIC BUDGET FOR ENTIRE MODEL AT END OF TIME STEP  295, STRESS PERIOD   1
  ------------------------------------------------------------------------------

     CUMULATIVE VOLUMES      L**3       RATES FOR THIS TIME STEP      L**3/T
     ------------------                 ------------------------

           IN:                                      IN:
           ---                                      ---
             STORAGE =   250664560.0000               STORAGE =      770804.5625
       CONSTANT HEAD =           0.0000         CONSTANT HEAD =           0.0000
       RIVER LEAKAGE =  1184951296.0000         RIVER LEAKAGE =      422544.1562
            RECHARGE =     5699867.0000              RECHARGE =       33155.2461

            TOTAL IN =  1441315712.0000              TOTAL IN =     1226504.0000

          OUT:                                     OUT:
          ----                                     ----
             STORAGE =  1423298816.0000               STORAGE =     1028868.0625
       CONSTANT HEAD =           0.0000         CONSTANT HEAD =           0.0000
       RIVER LEAKAGE =    18443302.0000         RIVER LEAKAGE =      199071.1719
            RECHARGE =           0.0000              RECHARGE =           0.0000

           TOTAL OUT =  1441742080.0000             TOTAL OUT =     1227939.2500

            IN - OUT =     -426368.0000              IN - OUT =       -1435.2500

 PERCENT DISCREPANCY =          -0.03     PERCENT DISCREPANCY =          -0.12






         TIME SUMMARY AT END OF TIME STEP  295 IN STRESS PERIOD    1
                    SECONDS     MINUTES      HOURS       DAYS        YEARS
                    -----------------------------------------------------------
   TIME STEP LENGTH  86400.      1440.0      24.000      1.0000     2.73785E-03
 STRESS PERIOD TIME 2.54880E+07 4.24800E+05  7080.0      295.00     0.80767    
         TOTAL TIME 2.54880E+07 4.24800E+05  7080.0      295.00     0.80767    
1
 
 SOLVING FOR HEAD 
                                                   Max.-Head-Change                        Max.-Flux-Residual
  Residual-Control   Outer-Iter.   Inner-Iter.     Column Row Layer    Max.-Head-Change    Column Row Layer    Max.-Flux-Residual            L2-New               L2-Old           Solver-Max-Delh
          0                 1           2            54   44     1       0.3544107037E+01      26  115    1       0.1323501862E+06      0.4118424831E+06      0.4881852219E+03      0.3544107037E+01
          0                 2           2            54   44     1      -0.3060797837E+00      26  115    1      -0.1323502290E+05      0.4118430226E+05      0.4118424831E+06     -0.3060797837E+00
          0                 3           2            26   78     1       0.3128704885E-01      26  115    1      -0.6617508404E+03      0.2059224271E+04      0.4118430226E+05      0.3128704885E-01

    ------------------------------------------------
       NWT REQUIRED            3 OUTER ITERATIONS 
       AND A TOTAL OF          6 INNER ITERATIONS.
    ------------------------------------------------

 OUTPUT CONTROL FOR STRESS PERIOD    1   TIME STEP  296
    SAVE HEAD FOR ALL LAYERS
    SAVE DRAWDOWN FOR ALL LAYERS
    SAVE BUDGET
    PRINT BUDGET
 UBDSV1 SAVING "         STORAGE" ON UNIT   9 AT TIME STEP296, STRESS PERIOD   1
 UBDSV2 SAVING "   CONSTANT HEAD" ON UNIT   9 AT TIME STEP296, STRESS PERIOD   1
 UBDSV1 SAVING "FLOW RIGHT FACE " ON UNIT   9 AT TIME STEP296, STRESS PERIOD   1
 UBDSV1 SAVING "FLOW FRONT FACE " ON UNIT   9 AT TIME STEP296, STRESS PERIOD   1
 UBDSV4 SAVING "   RIVER LEAKAGE" ON UNIT   9 AT TIME STEP296, STRESS PERIOD   1
 UBDSV3 SAVING "        RECHARGE" ON UNIT   9 AT TIME STEP296, STRESS PERIOD   1

 HEAD WILL BE SAVED ON UNIT   37 AT END OF TIME STEP  296, STRESS PERIOD    1

 DRAWDOWN WILL BE SAVED ON UNIT   38 AT END OF TIME STEP  296, STRESS PERIOD    1
1
  VOLUMETRIC BUDGET FOR ENTIRE MODEL AT END OF TIME STEP  296, STRESS PERIOD   1
  ------------------------------------------------------------------------------

     CUMULATIVE VOLUMES      L**3       RATES FOR THIS TIME STEP      L**3/T
     ------------------                 ------------------------

           IN:                                      IN:
           ---                                      ---
             STORAGE =   251418224.0000               STORAGE =      753659.6875
       CONSTANT HEAD =           0.0000         CONSTANT HEAD =           0.0000
       RIVER LEAKAGE =  1185931136.0000         RIVER LEAKAGE =      979890.0625
            RECHARGE =     5743003.5000              RECHARGE =       43136.6172

            TOTAL IN =  1443092352.0000              TOTAL IN =     1776686.3750

          OUT:                                     OUT:
          ----                                     ----
             STORAGE =  1424879872.0000               STORAGE =     1581105.5000
       CONSTANT HEAD =           0.0000         CONSTANT HEAD =           0.0000
       RIVER LEAKAGE =    18639740.0000         RIVER LEAKAGE =      196437.9219
            RECHARGE =           0.0000              RECHARGE =           0.0000

           TOTAL OUT =  1443519616.0000             TOTAL OUT =     1777543.3750

            IN - OUT =     -427264.0000              IN - OUT =        -857.0000

 PERCENT DISCREPANCY =          -0.03     PERCENT DISCREPANCY =          -0.05






         TIME SUMMARY AT END OF TIME STEP  296 IN STRESS PERIOD    1
                    SECONDS     MINUTES      HOURS       DAYS        YEARS
                    -----------------------------------------------------------
   TIME STEP LENGTH  86400.      1440.0      24.000      1.0000     2.73785E-03
 STRESS PERIOD TIME 2.55744E+07 4.26240E+05  7104.0      296.00     0.81040    
         TOTAL TIME 2.55744E+07 4.26240E+05  7104.0      296.00     0.81040    
1
 
 SOLVING FOR HEAD 
                                                   Max.-Head-Change                        Max.-Flux-Residual
  Residual-Control   Outer-Iter.   Inner-Iter.     Column Row Layer    Max.-Head-Change    Column Row Layer    Max.-Flux-Residual            L2-New               L2-Old           Solver-Max-Delh
          0                 1           2            54   44     1       0.3307103017E+01      26  115    1      -0.1283764226E+06      0.3767133266E+06      0.1031346911E+03      0.3307103017E+01
          0                 2           2            35   83     1       0.1531613664E+02      26  115    1       0.1283764680E+05      0.3752479871E+05      0.3767133266E+06      0.1531613664E+02
          1                 2           0            35   83     1       0.1072129546E+02      35   83    1      -0.6939753894E+07      0.6947471203E+07      0.3752479871E+05      0.1531613664E+02
          2                 2           0            35   83     1       0.7504906697E+01      35   83    1      -0.4856465403E+07      0.4861854337E+07      0.6947471203E+07      0.1531613664E+02
          3                 2           0            35   83     1       0.5253434598E+01      35   83    1      -0.3398163484E+07      0.3401953995E+07      0.4861854337E+07      0.1531613664E+02
          4                 2           0            35   83     1       0.3677404156E+01      35   83    1      -0.2377352158E+07      0.2380068743E+07      0.3401953995E+07      0.1531613664E+02
          5                 2           0            35   83     1       0.2574182865E+01      35   83    1      -0.1662784242E+07      0.1664813428E+07      0.2380068743E+07      0.1531613664E+02
          6                 2           0            35   83     1       0.1801927975E+01      35   83    1      -0.1162586709E+07      0.1164226857E+07      0.1664813428E+07      0.1531613664E+02
          7                 2           0            35   83     1       0.1261349561E+01      35   83    1      -0.8124484420E+06      0.8139482901E+06      0.1164226857E+07      0.1531613664E+02
          8                 2           0            35   83     1       0.8829446778E+00      35   83    1      -0.5673516593E+06      0.5689426200E+06      0.8139482901E+06      0.1531613664E+02
                                                   Max.-Head-Change                        Max.-Flux-Residual
  Residual-Control   Outer-Iter.   Inner-Iter.     Column Row Layer    Max.-Head-Change    Column Row Layer    Max.-Flux-Residual            L2-New               L2-Old           Solver-Max-Delh
          9                 2           0            35   83     1       0.6180612639E+00      35   83    1      -0.3957839144E+06      0.3977102774E+06      0.5689426200E+06      0.1531613664E+02
         10                 2           0            35   83     1       0.4326428774E+00      35   83    1      -0.2756864949E+06      0.2782371739E+06      0.3977102774E+06      0.1531613664E+02
         11                 2           0            35   83     1       0.3028500090E+00      35   83    1      -0.1916183028E+06      0.1951629584E+06      0.2782371739E+06      0.1531613664E+02
         12                 2           0            35   83     1       0.2119950027E+00      35   83    1      -0.1327705693E+06      0.1378001312E+06      0.1951629584E+06      0.1531613664E+02
         13                 2           0            35   83     1       0.1483964994E+00      35   83    1      -0.9157715650E+05      0.9873959285E+05      0.1378001312E+06      0.1531613664E+02
         14                 2           0            35   83     1       0.1038775478E+00      35   83    1      -0.6274176806E+05      0.7284131120E+05      0.9873959285E+05      0.1531613664E+02
         15                 2           0            35   83     1       0.7271428221E-01      35   83    1      -0.4255699650E+05      0.5645366191E+05      0.7284131120E+05      0.1531613664E+02
         16                 2           0            35   83     1       0.5089999668E-01      35   83    1      -0.2842765664E+05      0.4679495350E+05      0.5645366191E+05      0.1531613664E+02
         17                 2           0            35   83     1       0.3562999707E-01      35   83    1      -0.1853711891E+05      0.4158885896E+05      0.4679495350E+05      0.1531613664E+02
          0                 3           2            29  111     1       0.2695662611E+01      26  115    1       0.1280927574E+05      0.3903232568E+05      0.4158885896E+05      0.2695662611E+01
                                                   Max.-Head-Change                        Max.-Flux-Residual
  Residual-Control   Outer-Iter.   Inner-Iter.     Column Row Layer    Max.-Head-Change    Column Row Layer    Max.-Flux-Residual            L2-New               L2-Old           Solver-Max-Delh
          1                 3           0            29  111     1       0.1886963796E+01      29  111    1      -0.3274078253E+06      0.3274196096E+06      0.3903232568E+05      0.2695662611E+01
          2                 3           0            29  111     1       0.1320874635E+01      29  111    1      -0.2287651579E+06      0.2291582366E+06      0.3274196096E+06      0.2695662611E+01
          3                 3           0            29  111     1       0.9246122285E+00      29  111    1      -0.1597152919E+06      0.1611008270E+06      0.2291582366E+06      0.2695662611E+01
          4                 3           0            29  111     1       0.6472285489E+00      29  111    1      -0.1113803866E+06      0.1144803774E+06      0.1611008270E+06      0.2695662611E+01
          5                 3           0            29  111     1       0.4530599765E+00      29  111    1      -0.7754595352E+05      0.8322894613E+05      0.1144803774E+06      0.2695662611E+01
          6                 3           0            29  111     1       0.3171419782E+00      29  111    1      -0.5386185075E+05      0.6309653770E+05      0.8322894613E+05      0.2695662611E+01
          7                 3           0            29  111     1       0.2219993809E+00      29  111    1      -0.3728297910E+05      0.5093981227E+05      0.6309653770E+05      0.2695662611E+01
          8                 3           0            29  111     1       0.1553995640E+00      29  111    1      -0.2567776914E+05      0.4422211645E+05      0.5093981227E+05      0.2695662611E+01
          0                 4           2            54   44     1      -0.2695272328E+00      29  111    1      -0.1755412231E+05      0.4087015349E+05      0.4422211645E+05     -0.2695272328E+00
          0                 5           2            26   78     1       0.3124552844E-01      29  111    1      -0.3115469378E+04      0.4081604662E+04      0.4087015349E+05      0.3124552844E-01
                                                   Max.-Head-Change                        Max.-Flux-Residual
  Residual-Control   Outer-Iter.   Inner-Iter.     Column Row Layer    Max.-Head-Change    Column Row Layer    Max.-Flux-Residual            L2-New               L2-Old           Solver-Max-Delh
          0                 6           2            26   78     1       0.3123787008E-01      29  111    1      -0.5529261836E+03      0.6594964558E+03      0.4081604662E+04      0.3123787008E-01

    ------------------------------------------------
       NWT REQUIRED            6 OUTER ITERATIONS 
       AND A TOTAL OF         12 INNER ITERATIONS.
    ------------------------------------------------

 OUTPUT CONTROL FOR STRESS PERIOD    1   TIME STEP  297
    SAVE HEAD FOR ALL LAYERS
    SAVE DRAWDOWN FOR ALL LAYERS
    SAVE BUDGET
    PRINT BUDGET
 UBDSV1 SAVING "         STORAGE" ON UNIT   9 AT TIME STEP297, STRESS PERIOD   1
 UBDSV2 SAVING "   CONSTANT HEAD" ON UNIT   9 AT TIME STEP297, STRESS PERIOD   1
 UBDSV1 SAVING "FLOW RIGHT FACE " ON UNIT   9 AT TIME STEP297, STRESS PERIOD   1
 UBDSV1 SAVING "FLOW FRONT FACE " ON UNIT   9 AT TIME STEP297, STRESS PERIOD   1
 UBDSV4 SAVING "   RIVER LEAKAGE" ON UNIT   9 AT TIME STEP297, STRESS PERIOD   1
 UBDSV3 SAVING "        RECHARGE" ON UNIT   9 AT TIME STEP297, STRESS PERIOD   1

 HEAD WILL BE SAVED ON UNIT   37 AT END OF TIME STEP  297, STRESS PERIOD    1

 DRAWDOWN WILL BE SAVED ON UNIT   38 AT END OF TIME STEP  297, STRESS PERIOD    1
1
  VOLUMETRIC BUDGET FOR ENTIRE MODEL AT END OF TIME STEP  297, STRESS PERIOD   1
  ------------------------------------------------------------------------------

     CUMULATIVE VOLUMES      L**3       RATES FOR THIS TIME STEP      L**3/T
     ------------------                 ------------------------

           IN:                                      IN:
           ---                                      ---
             STORAGE =   252180016.0000               STORAGE =      761799.9375
       CONSTANT HEAD =           0.0000         CONSTANT HEAD =           0.0000
       RIVER LEAKAGE =  1186362624.0000         RIVER LEAKAGE =      431510.6875
            RECHARGE =     5797302.0000              RECHARGE =       54298.3555

            TOTAL IN =  1444339840.0000              TOTAL IN =     1247609.0000

          OUT:                                     OUT:
          ----                                     ----
             STORAGE =  1425925888.0000               STORAGE =     1045952.9375
       CONSTANT HEAD =           0.0000         CONSTANT HEAD =           0.0000
       RIVER LEAKAGE =    18841498.0000         RIVER LEAKAGE =      201757.7031
            RECHARGE =           0.0000              RECHARGE =           0.0000

           TOTAL OUT =  1444767360.0000             TOTAL OUT =     1247710.6250

            IN - OUT =     -427520.0000              IN - OUT =        -101.6250

 PERCENT DISCREPANCY =          -0.03     PERCENT DISCREPANCY =          -0.01






         TIME SUMMARY AT END OF TIME STEP  297 IN STRESS PERIOD    1
                    SECONDS     MINUTES      HOURS       DAYS        YEARS
                    -----------------------------------------------------------
   TIME STEP LENGTH  86400.      1440.0      24.000      1.0000     2.73785E-03
 STRESS PERIOD TIME 2.56608E+07 4.27680E+05  7128.0      297.00     0.81314    
         TOTAL TIME 2.56608E+07 4.27680E+05  7128.0      297.00     0.81314    
1
 
 SOLVING FOR HEAD 
                                                   Max.-Head-Change                        Max.-Flux-Residual
  Residual-Control   Outer-Iter.   Inner-Iter.     Column Row Layer    Max.-Head-Change    Column Row Layer    Max.-Flux-Residual            L2-New               L2-Old           Solver-Max-Delh
          0                 1           2            54   44     1       0.3041816001E+01      36   86    1       0.3237701548E+05      0.9787262690E+05      0.1162451675E+03      0.3041816001E+01
          0                 2           2            54   44     1      -0.2627028468E+00      36   86    1      -0.3237735568E+04      0.9787292507E+04      0.9787262690E+05     -0.2627028468E+00

    ------------------------------------------------
       NWT REQUIRED            2 OUTER ITERATIONS 
       AND A TOTAL OF          4 INNER ITERATIONS.
    ------------------------------------------------

 OUTPUT CONTROL FOR STRESS PERIOD    1   TIME STEP  298
    SAVE HEAD FOR ALL LAYERS
    SAVE DRAWDOWN FOR ALL LAYERS
    SAVE BUDGET
    PRINT BUDGET
 UBDSV1 SAVING "         STORAGE" ON UNIT   9 AT TIME STEP298, STRESS PERIOD   1
 UBDSV2 SAVING "   CONSTANT HEAD" ON UNIT   9 AT TIME STEP298, STRESS PERIOD   1
 UBDSV1 SAVING "FLOW RIGHT FACE " ON UNIT   9 AT TIME STEP298, STRESS PERIOD   1
 UBDSV1 SAVING "FLOW FRONT FACE " ON UNIT   9 AT TIME STEP298, STRESS PERIOD   1
 UBDSV4 SAVING "   RIVER LEAKAGE" ON UNIT   9 AT TIME STEP298, STRESS PERIOD   1
 UBDSV3 SAVING "        RECHARGE" ON UNIT   9 AT TIME STEP298, STRESS PERIOD   1

 HEAD WILL BE SAVED ON UNIT   37 AT END OF TIME STEP  298, STRESS PERIOD    1

 DRAWDOWN WILL BE SAVED ON UNIT   38 AT END OF TIME STEP  298, STRESS PERIOD    1
1
  VOLUMETRIC BUDGET FOR ENTIRE MODEL AT END OF TIME STEP  298, STRESS PERIOD   1
  ------------------------------------------------------------------------------

     CUMULATIVE VOLUMES      L**3       RATES FOR THIS TIME STEP      L**3/T
     ------------------                 ------------------------

           IN:                                      IN:
           ---                                      ---
             STORAGE =   252943488.0000               STORAGE =      763478.1250
       CONSTANT HEAD =           0.0000         CONSTANT HEAD =           0.0000
       RIVER LEAKAGE =  1186784512.0000         RIVER LEAKAGE =      421837.2188
            RECHARGE =     5848676.0000              RECHARGE =       51374.1602

            TOTAL IN =  1445576704.0000              TOTAL IN =     1236689.5000

          OUT:                                     OUT:
          ----                                     ----
             STORAGE =  1426964224.0000               STORAGE =     1038281.9375
       CONSTANT HEAD =           0.0000         CONSTANT HEAD =           0.0000
       RIVER LEAKAGE =    19040898.0000         RIVER LEAKAGE =      199399.9688
            RECHARGE =           0.0000              RECHARGE =           0.0000

           TOTAL OUT =  1446005120.0000             TOTAL OUT =     1237681.8750

            IN - OUT =     -428416.0000              IN - OUT =        -992.3750

 PERCENT DISCREPANCY =          -0.03     PERCENT DISCREPANCY =          -0.08






         TIME SUMMARY AT END OF TIME STEP  298 IN STRESS PERIOD    1
                    SECONDS     MINUTES      HOURS       DAYS        YEARS
                    -----------------------------------------------------------
   TIME STEP LENGTH  86400.      1440.0      24.000      1.0000     2.73785E-03
 STRESS PERIOD TIME 2.57472E+07 4.29120E+05  7152.0      298.00     0.81588    
         TOTAL TIME 2.57472E+07 4.29120E+05  7152.0      298.00     0.81588    
1
 
 SOLVING FOR HEAD 
                                                   Max.-Head-Change                        Max.-Flux-Residual
  Residual-Control   Outer-Iter.   Inner-Iter.     Column Row Layer    Max.-Head-Change    Column Row Layer    Max.-Flux-Residual            L2-New               L2-Old           Solver-Max-Delh
          0                 1           2            54   44     1       0.2789923691E+01      36   86    1       0.3235138238E+05      0.9722266401E+05      0.4894057526E+03      0.2789923691E+01
          0                 2           2            54   44     1      -0.2409484274E+00      36   86    1      -0.3235172295E+04      0.9722295948E+04      0.9722266401E+05     -0.2409484274E+00

    ------------------------------------------------
       NWT REQUIRED            2 OUTER ITERATIONS 
       AND A TOTAL OF          4 INNER ITERATIONS.
    ------------------------------------------------

 OUTPUT CONTROL FOR STRESS PERIOD    1   TIME STEP  299
    SAVE HEAD FOR ALL LAYERS
    SAVE DRAWDOWN FOR ALL LAYERS
    SAVE BUDGET
    PRINT BUDGET
 UBDSV1 SAVING "         STORAGE" ON UNIT   9 AT TIME STEP299, STRESS PERIOD   1
 UBDSV2 SAVING "   CONSTANT HEAD" ON UNIT   9 AT TIME STEP299, STRESS PERIOD   1
 UBDSV1 SAVING "FLOW RIGHT FACE " ON UNIT   9 AT TIME STEP299, STRESS PERIOD   1
 UBDSV1 SAVING "FLOW FRONT FACE " ON UNIT   9 AT TIME STEP299, STRESS PERIOD   1
 UBDSV4 SAVING "   RIVER LEAKAGE" ON UNIT   9 AT TIME STEP299, STRESS PERIOD   1
 UBDSV3 SAVING "        RECHARGE" ON UNIT   9 AT TIME STEP299, STRESS PERIOD   1

 HEAD WILL BE SAVED ON UNIT   37 AT END OF TIME STEP  299, STRESS PERIOD    1

 DRAWDOWN WILL BE SAVED ON UNIT   38 AT END OF TIME STEP  299, STRESS PERIOD    1
1
  VOLUMETRIC BUDGET FOR ENTIRE MODEL AT END OF TIME STEP  299, STRESS PERIOD   1
  ------------------------------------------------------------------------------

     CUMULATIVE VOLUMES      L**3       RATES FOR THIS TIME STEP      L**3/T
     ------------------                 ------------------------

           IN:                                      IN:
           ---                                      ---
             STORAGE =   253708704.0000               STORAGE =      765215.0625
       CONSTANT HEAD =           0.0000         CONSTANT HEAD =           0.0000
       RIVER LEAKAGE =  1187198592.0000         RIVER LEAKAGE =      414098.1875
            RECHARGE =     5890775.5000              RECHARGE =       42099.5977

            TOTAL IN =  1446798080.0000              TOTAL IN =     1221412.8750

          OUT:                                     OUT:
          ----                                     ----
             STORAGE =  1427987968.0000               STORAGE =     1023746.6250
       CONSTANT HEAD =           0.0000         CONSTANT HEAD =           0.0000
       RIVER LEAKAGE =    19239594.0000         RIVER LEAKAGE =      198696.5469
            RECHARGE =           0.0000              RECHARGE =           0.0000

           TOTAL OUT =  1447227520.0000             TOTAL OUT =     1222443.1250

            IN - OUT =     -429440.0000              IN - OUT =       -1030.2500

 PERCENT DISCREPANCY =          -0.03     PERCENT DISCREPANCY =          -0.08






         TIME SUMMARY AT END OF TIME STEP  299 IN STRESS PERIOD    1
                    SECONDS     MINUTES      HOURS       DAYS        YEARS
                    -----------------------------------------------------------
   TIME STEP LENGTH  86400.      1440.0      24.000      1.0000     2.73785E-03
 STRESS PERIOD TIME 2.58336E+07 4.30560E+05  7176.0      299.00     0.81862    
         TOTAL TIME 2.58336E+07 4.30560E+05  7176.0      299.00     0.81862    
1
 
 SOLVING FOR HEAD 
                                                   Max.-Head-Change                        Max.-Flux-Residual
  Residual-Control   Outer-Iter.   Inner-Iter.     Column Row Layer    Max.-Head-Change    Column Row Layer    Max.-Flux-Residual            L2-New               L2-Old           Solver-Max-Delh
          0                 1           2            54   44     1       0.2546082597E+01      36   86    1       0.3232570345E+05      0.9683479827E+05      0.4861562964E+03      0.2546082597E+01
          0                 2           2            54   44     1      -0.2198893494E+00      36   86    1      -0.3232604396E+04      0.9683509275E+04      0.9683479827E+05     -0.2198893494E+00

    ------------------------------------------------
       NWT REQUIRED            2 OUTER ITERATIONS 
       AND A TOTAL OF          4 INNER ITERATIONS.
    ------------------------------------------------

 OUTPUT CONTROL FOR STRESS PERIOD    1   TIME STEP  300
    SAVE HEAD FOR ALL LAYERS
    SAVE DRAWDOWN FOR ALL LAYERS
    SAVE BUDGET
    PRINT BUDGET
 UBDSV1 SAVING "         STORAGE" ON UNIT   9 AT TIME STEP300, STRESS PERIOD   1
 UBDSV2 SAVING "   CONSTANT HEAD" ON UNIT   9 AT TIME STEP300, STRESS PERIOD   1
 UBDSV1 SAVING "FLOW RIGHT FACE " ON UNIT   9 AT TIME STEP300, STRESS PERIOD   1
 UBDSV1 SAVING "FLOW FRONT FACE " ON UNIT   9 AT TIME STEP300, STRESS PERIOD   1
 UBDSV4 SAVING "   RIVER LEAKAGE" ON UNIT   9 AT TIME STEP300, STRESS PERIOD   1
 UBDSV3 SAVING "        RECHARGE" ON UNIT   9 AT TIME STEP300, STRESS PERIOD   1

 HEAD WILL BE SAVED ON UNIT   37 AT END OF TIME STEP  300, STRESS PERIOD    1

 DRAWDOWN WILL BE SAVED ON UNIT   38 AT END OF TIME STEP  300, STRESS PERIOD    1
1
  VOLUMETRIC BUDGET FOR ENTIRE MODEL AT END OF TIME STEP  300, STRESS PERIOD   1
  ------------------------------------------------------------------------------

     CUMULATIVE VOLUMES      L**3       RATES FOR THIS TIME STEP      L**3/T
     ------------------                 ------------------------

           IN:                                      IN:
           ---                                      ---
             STORAGE =   254475856.0000               STORAGE =      767152.5625
       CONSTANT HEAD =           0.0000         CONSTANT HEAD =           0.0000
       RIVER LEAKAGE =  1187608064.0000         RIVER LEAKAGE =      409473.1875
            RECHARGE =     5923336.5000              RECHARGE =       32561.2129

            TOTAL IN =  1448007296.0000              TOTAL IN =     1209187.0000

          OUT:                                     OUT:
          ----                                     ----
             STORAGE =  1429000320.0000               STORAGE =     1012291.1875
       CONSTANT HEAD =           0.0000         CONSTANT HEAD =           0.0000
       RIVER LEAKAGE =    19437522.0000         RIVER LEAKAGE =      197927.6406
            RECHARGE =           0.0000              RECHARGE =           0.0000

           TOTAL OUT =  1448437888.0000             TOTAL OUT =     1210218.8750

            IN - OUT =     -430592.0000              IN - OUT =       -1031.8750

 PERCENT DISCREPANCY =          -0.03     PERCENT DISCREPANCY =          -0.09






         TIME SUMMARY AT END OF TIME STEP  300 IN STRESS PERIOD    1
                    SECONDS     MINUTES      HOURS       DAYS        YEARS
                    -----------------------------------------------------------
   TIME STEP LENGTH  86400.      1440.0      24.000      1.0000     2.73785E-03
 STRESS PERIOD TIME 2.59200E+07 4.32000E+05  7200.0      300.00     0.82136    
         TOTAL TIME 2.59200E+07 4.32000E+05  7200.0      300.00     0.82136    
1
 
 SOLVING FOR HEAD 
                                                   Max.-Head-Change                        Max.-Flux-Residual
  Residual-Control   Outer-Iter.   Inner-Iter.     Column Row Layer    Max.-Head-Change    Column Row Layer    Max.-Flux-Residual            L2-New               L2-Old           Solver-Max-Delh
          0                 1           2            54   44     1       0.2319234368E+01      36   86    1       0.3229999465E+05      0.9663032695E+05      0.4842171426E+03      0.2319234368E+01
          0                 2           2            55   44     1       0.6828238777E+00      36   86    1      -0.3230033479E+04      0.9663360053E+04      0.9663032695E+05      0.6828238777E+00
          1                 2           0            55   44     1       0.4779767063E+00      29  111    1       0.4076911407E+05      0.4077198095E+05      0.9663360053E+04      0.6828238777E+00
          0                 3           2            55   44     1       0.1570495028E+00      36   86    1      -0.1082061319E+04      0.3237186278E+04      0.4077198095E+05      0.1570495028E+00
          1                 3           0            55   44     1       0.1099346501E+00      29  111    1       0.3093381806E+05      0.3093424366E+05      0.3237186278E+04      0.1570495028E+00
          2                 3           0            55   44     1       0.7695425373E-01      29  111    1       0.2123910059E+05      0.2126677001E+05      0.3093424366E+05      0.1570495028E+00
          3                 3           0            55   44     1       0.5386797670E-01      29  111    1       0.1445279569E+05      0.1455600126E+05      0.2126677001E+05      0.1570495028E+00
          4                 3           0            55   44     1       0.3770758304E-01      29  111    1       0.9702380967E+04      0.9944788637E+04      0.1455600126E+05      0.1570495028E+00
          5                 3           0            55   44     1       0.2639530768E-01      29  111    1       0.6377090050E+04      0.6849177341E+04      0.9944788637E+04      0.1570495028E+00
          6                 3           0            55   44     1       0.1847671506E-01      29  111    1       0.4049386119E+04      0.4878276143E+04      0.6849177341E+04      0.1570495028E+00
                                                   Max.-Head-Change                        Max.-Flux-Residual
  Residual-Control   Outer-Iter.   Inner-Iter.     Column Row Layer    Max.-Head-Change    Column Row Layer    Max.-Flux-Residual            L2-New               L2-Old           Solver-Max-Delh
          7                 3           0            55   44     1       0.1293370032E-01      29  111    1       0.2419993234E+04      0.3758201410E+04      0.4878276143E+04      0.1570495028E+00
          0                 4           2            55   44     1       0.1428224324E+00      29  111    1       0.1279418155E+04      0.3246628382E+04      0.3758201410E+04      0.1428224324E+00

    ------------------------------------------------
       NWT REQUIRED            4 OUTER ITERATIONS 
       AND A TOTAL OF          8 INNER ITERATIONS.
    ------------------------------------------------

 OUTPUT CONTROL FOR STRESS PERIOD    1   TIME STEP  301
    SAVE HEAD FOR ALL LAYERS
    SAVE DRAWDOWN FOR ALL LAYERS
    SAVE BUDGET
    PRINT BUDGET
 UBDSV1 SAVING "         STORAGE" ON UNIT   9 AT TIME STEP301, STRESS PERIOD   1
 UBDSV2 SAVING "   CONSTANT HEAD" ON UNIT   9 AT TIME STEP301, STRESS PERIOD   1
 UBDSV1 SAVING "FLOW RIGHT FACE " ON UNIT   9 AT TIME STEP301, STRESS PERIOD   1
 UBDSV1 SAVING "FLOW FRONT FACE " ON UNIT   9 AT TIME STEP301, STRESS PERIOD   1
 UBDSV4 SAVING "   RIVER LEAKAGE" ON UNIT   9 AT TIME STEP301, STRESS PERIOD   1
 UBDSV3 SAVING "        RECHARGE" ON UNIT   9 AT TIME STEP301, STRESS PERIOD   1

 HEAD WILL BE SAVED ON UNIT   37 AT END OF TIME STEP  301, STRESS PERIOD    1

 DRAWDOWN WILL BE SAVED ON UNIT   38 AT END OF TIME STEP  301, STRESS PERIOD    1
1
  VOLUMETRIC BUDGET FOR ENTIRE MODEL AT END OF TIME STEP  301, STRESS PERIOD   1
  ------------------------------------------------------------------------------

     CUMULATIVE VOLUMES      L**3       RATES FOR THIS TIME STEP      L**3/T
     ------------------                 ------------------------

           IN:                                      IN:
           ---                                      ---
             STORAGE =   255241552.0000               STORAGE =      765700.4375
       CONSTANT HEAD =           0.0000         CONSTANT HEAD =           0.0000
       RIVER LEAKAGE =  1188015616.0000         RIVER LEAKAGE =      407565.3438
            RECHARGE =     5948944.0000              RECHARGE =       25607.2539

            TOTAL IN =  1449206144.0000              TOTAL IN =     1198873.0000

          OUT:                                     OUT:
          ----                                     ----
             STORAGE =  1430002048.0000               STORAGE =     1001783.6875
       CONSTANT HEAD =           0.0000         CONSTANT HEAD =           0.0000
       RIVER LEAKAGE =    19634864.0000         RIVER LEAKAGE =      197342.5312
            RECHARGE =           0.0000              RECHARGE =           0.0000

           TOTAL OUT =  1449636864.0000             TOTAL OUT =     1199126.2500

            IN - OUT =     -430720.0000              IN - OUT =        -253.2500

 PERCENT DISCREPANCY =          -0.03     PERCENT DISCREPANCY =          -0.02






         TIME SUMMARY AT END OF TIME STEP  301 IN STRESS PERIOD    1
                    SECONDS     MINUTES      HOURS       DAYS        YEARS
                    -----------------------------------------------------------
   TIME STEP LENGTH  86400.      1440.0      24.000      1.0000     2.73785E-03
 STRESS PERIOD TIME 2.60064E+07 4.33440E+05  7224.0      301.00     0.82409    
         TOTAL TIME 2.60064E+07 4.33440E+05  7224.0      301.00     0.82409    
1
 
 SOLVING FOR HEAD 
                                                   Max.-Head-Change                        Max.-Flux-Residual
  Residual-Control   Outer-Iter.   Inner-Iter.     Column Row Layer    Max.-Head-Change    Column Row Layer    Max.-Flux-Residual            L2-New               L2-Old           Solver-Max-Delh
          0                 1           2            54   44     1       0.2106790928E+01      36   86    1       0.3227435504E+05      0.9651303970E+05      0.1624050885E+03      0.2106790928E+01
          0                 2           2            36   39     1       0.2090591496E+02      36   39    1       0.4100322786E+04      0.1046207203E+05      0.9651303970E+05      0.2090591496E+02
          1                 2           0            36   39     1       0.1463414022E+02      36   39    1      -0.1311057162E+06      0.1311065996E+06      0.1046207203E+05      0.2090591496E+02
          2                 2           0            36   39     1       0.1024389798E+02      36   39    1      -0.9044578793E+05      0.9050324500E+05      0.1311065996E+06      0.2090591496E+02
          3                 2           0            36   39     1       0.7170728465E+01      36   39    1      -0.6198391054E+05      0.6219704315E+05      0.9050324500E+05      0.2090591496E+02
          4                 2           0            36   39     1       0.5019509840E+01      36   39    1      -0.4206059670E+05      0.4255816853E+05      0.6219704315E+05      0.2090591496E+02
          5                 2           0            36   39     1       0.3513656828E+01      36   39    1      -0.2811427725E+05      0.2907941422E+05      0.4255816853E+05      0.2090591496E+02
          6                 2           0            36   39     1       0.2459559738E+01      36   39    1      -0.1835185380E+05      0.2005519548E+05      0.2907941422E+05      0.2090591496E+02
          7                 2           0            36   39     1       0.1721691787E+01      36   39    1      -0.1151815750E+05      0.1434429859E+05      0.2005519548E+05      0.2090591496E+02
          0                 3           2            36   39     1      -0.9868665961E+00      36   39    1      -0.6734570176E+04      0.1113857109E+05      0.1434429859E+05     -0.9868665961E+00
                                                   Max.-Head-Change                        Max.-Flux-Residual
  Residual-Control   Outer-Iter.   Inner-Iter.     Column Row Layer    Max.-Head-Change    Column Row Layer    Max.-Flux-Residual            L2-New               L2-Old           Solver-Max-Delh
          0                 4           2            36   39     1      -0.4934382421E-01      36   39    1      -0.3367283382E+03      0.5568938885E+03      0.1113857109E+05     -0.4934382421E-01

    ------------------------------------------------
       NWT REQUIRED            4 OUTER ITERATIONS 
       AND A TOTAL OF          8 INNER ITERATIONS.
    ------------------------------------------------

 OUTPUT CONTROL FOR STRESS PERIOD    1   TIME STEP  302
    SAVE HEAD FOR ALL LAYERS
    SAVE DRAWDOWN FOR ALL LAYERS
    SAVE BUDGET
    PRINT BUDGET
 UBDSV1 SAVING "         STORAGE" ON UNIT   9 AT TIME STEP302, STRESS PERIOD   1
 UBDSV2 SAVING "   CONSTANT HEAD" ON UNIT   9 AT TIME STEP302, STRESS PERIOD   1
 UBDSV1 SAVING "FLOW RIGHT FACE " ON UNIT   9 AT TIME STEP302, STRESS PERIOD   1
 UBDSV1 SAVING "FLOW FRONT FACE " ON UNIT   9 AT TIME STEP302, STRESS PERIOD   1
 UBDSV4 SAVING "   RIVER LEAKAGE" ON UNIT   9 AT TIME STEP302, STRESS PERIOD   1
 UBDSV3 SAVING "        RECHARGE" ON UNIT   9 AT TIME STEP302, STRESS PERIOD   1

 HEAD WILL BE SAVED ON UNIT   37 AT END OF TIME STEP  302, STRESS PERIOD    1

 DRAWDOWN WILL BE SAVED ON UNIT   38 AT END OF TIME STEP  302, STRESS PERIOD    1
1
  VOLUMETRIC BUDGET FOR ENTIRE MODEL AT END OF TIME STEP  302, STRESS PERIOD   1
  ------------------------------------------------------------------------------

     CUMULATIVE VOLUMES      L**3       RATES FOR THIS TIME STEP      L**3/T
     ------------------                 ------------------------

           IN:                                      IN:
           ---                                      ---
             STORAGE =   256006624.0000               STORAGE =      765078.2500
       CONSTANT HEAD =           0.0000         CONSTANT HEAD =           0.0000
       RIVER LEAKAGE =  1188417920.0000         RIVER LEAKAGE =      402362.2812
            RECHARGE =     5970201.5000              RECHARGE =       21257.4141

            TOTAL IN =  1450394752.0000              TOTAL IN =     1188698.0000

          OUT:                                     OUT:
          ----                                     ----
             STORAGE =  1430993920.0000               STORAGE =      991860.2500
       CONSTANT HEAD =           0.0000         CONSTANT HEAD =           0.0000
       RIVER LEAKAGE =    19831738.0000         RIVER LEAKAGE =      196873.1719
            RECHARGE =           0.0000              RECHARGE =           0.0000

           TOTAL OUT =  1450825600.0000             TOTAL OUT =     1188733.3750

            IN - OUT =     -430848.0000              IN - OUT =         -35.3750

 PERCENT DISCREPANCY =          -0.03     PERCENT DISCREPANCY =          -0.00






         TIME SUMMARY AT END OF TIME STEP  302 IN STRESS PERIOD    1
                    SECONDS     MINUTES      HOURS       DAYS        YEARS
                    -----------------------------------------------------------
   TIME STEP LENGTH  86400.      1440.0      24.000      1.0000     2.73785E-03
 STRESS PERIOD TIME 2.60928E+07 4.34880E+05  7248.0      302.00     0.82683    
         TOTAL TIME 2.60928E+07 4.34880E+05  7248.0      302.00     0.82683    
1
 
 SOLVING FOR HEAD 
                                                   Max.-Head-Change                        Max.-Flux-Residual
  Residual-Control   Outer-Iter.   Inner-Iter.     Column Row Layer    Max.-Head-Change    Column Row Layer    Max.-Flux-Residual            L2-New               L2-Old           Solver-Max-Delh
          0                 1           2            54   44     1       0.1910406294E+01      36   86    1       0.3224872230E+05      0.9638929308E+05      0.2855032152E+02      0.1910406294E+01
          0                 2           2            54   44     1      -0.1649896412E+00      36   86    1      -0.3224906099E+04      0.9638953721E+04      0.9638929308E+05     -0.1649896412E+00

    ------------------------------------------------
       NWT REQUIRED            2 OUTER ITERATIONS 
       AND A TOTAL OF          4 INNER ITERATIONS.
    ------------------------------------------------

 OUTPUT CONTROL FOR STRESS PERIOD    1   TIME STEP  303
    SAVE HEAD FOR ALL LAYERS
    SAVE DRAWDOWN FOR ALL LAYERS
    SAVE BUDGET
    PRINT BUDGET
 UBDSV1 SAVING "         STORAGE" ON UNIT   9 AT TIME STEP303, STRESS PERIOD   1
 UBDSV2 SAVING "   CONSTANT HEAD" ON UNIT   9 AT TIME STEP303, STRESS PERIOD   1
 UBDSV1 SAVING "FLOW RIGHT FACE " ON UNIT   9 AT TIME STEP303, STRESS PERIOD   1
 UBDSV1 SAVING "FLOW FRONT FACE " ON UNIT   9 AT TIME STEP303, STRESS PERIOD   1
 UBDSV4 SAVING "   RIVER LEAKAGE" ON UNIT   9 AT TIME STEP303, STRESS PERIOD   1
 UBDSV3 SAVING "        RECHARGE" ON UNIT   9 AT TIME STEP303, STRESS PERIOD   1

 HEAD WILL BE SAVED ON UNIT   37 AT END OF TIME STEP  303, STRESS PERIOD    1

 DRAWDOWN WILL BE SAVED ON UNIT   38 AT END OF TIME STEP  303, STRESS PERIOD    1
1
  VOLUMETRIC BUDGET FOR ENTIRE MODEL AT END OF TIME STEP  303, STRESS PERIOD   1
  ------------------------------------------------------------------------------

     CUMULATIVE VOLUMES      L**3       RATES FOR THIS TIME STEP      L**3/T
     ------------------                 ------------------------

           IN:                                      IN:
           ---                                      ---
             STORAGE =   256774800.0000               STORAGE =      768171.5000
       CONSTANT HEAD =           0.0000         CONSTANT HEAD =           0.0000
       RIVER LEAKAGE =  1188820224.0000         RIVER LEAKAGE =      402277.8125
            RECHARGE =     5988909.0000              RECHARGE =       18707.7246

            TOTAL IN =  1451583872.0000              TOTAL IN =     1189157.0000

          OUT:                                     OUT:
          ----                                     ----
             STORAGE =  1431987712.0000               STORAGE =      993763.8125
       CONSTANT HEAD =           0.0000         CONSTANT HEAD =           0.0000
       RIVER LEAKAGE =    20028308.0000         RIVER LEAKAGE =      196570.6250
            RECHARGE =           0.0000              RECHARGE =           0.0000

           TOTAL OUT =  1452016000.0000             TOTAL OUT =     1190334.5000

            IN - OUT =     -432128.0000              IN - OUT =       -1177.5000

 PERCENT DISCREPANCY =          -0.03     PERCENT DISCREPANCY =          -0.10






         TIME SUMMARY AT END OF TIME STEP  303 IN STRESS PERIOD    1
                    SECONDS     MINUTES      HOURS       DAYS        YEARS
                    -----------------------------------------------------------
   TIME STEP LENGTH  86400.      1440.0      24.000      1.0000     2.73785E-03
 STRESS PERIOD TIME 2.61792E+07 4.36320E+05  7272.0      303.00     0.82957    
         TOTAL TIME 2.61792E+07 4.36320E+05  7272.0      303.00     0.82957    
1
 
 SOLVING FOR HEAD 
                                                   Max.-Head-Change                        Max.-Flux-Residual
  Residual-Control   Outer-Iter.   Inner-Iter.     Column Row Layer    Max.-Head-Change    Column Row Layer    Max.-Flux-Residual            L2-New               L2-Old           Solver-Max-Delh
          0                 1           2            54   44     1       0.1727679826E+01      36   86    1       0.3222296909E+05      0.9677586447E+05      0.4819892931E+03      0.1727679826E+01
          0                 2           2            54   44     1      -0.1492087183E+00      36   86    1      -0.3222330769E+04      0.9677610448E+04      0.9677586447E+05     -0.1492087183E+00

    ------------------------------------------------
       NWT REQUIRED            2 OUTER ITERATIONS 
       AND A TOTAL OF          4 INNER ITERATIONS.
    ------------------------------------------------

 OUTPUT CONTROL FOR STRESS PERIOD    1   TIME STEP  304
    SAVE HEAD FOR ALL LAYERS
    SAVE DRAWDOWN FOR ALL LAYERS
    SAVE BUDGET
    PRINT BUDGET
 UBDSV1 SAVING "         STORAGE" ON UNIT   9 AT TIME STEP304, STRESS PERIOD   1
 UBDSV2 SAVING "   CONSTANT HEAD" ON UNIT   9 AT TIME STEP304, STRESS PERIOD   1
 UBDSV1 SAVING "FLOW RIGHT FACE " ON UNIT   9 AT TIME STEP304, STRESS PERIOD   1
 UBDSV1 SAVING "FLOW FRONT FACE " ON UNIT   9 AT TIME STEP304, STRESS PERIOD   1
 UBDSV4 SAVING "   RIVER LEAKAGE" ON UNIT   9 AT TIME STEP304, STRESS PERIOD   1
 UBDSV3 SAVING "        RECHARGE" ON UNIT   9 AT TIME STEP304, STRESS PERIOD   1

 HEAD WILL BE SAVED ON UNIT   37 AT END OF TIME STEP  304, STRESS PERIOD    1

 DRAWDOWN WILL BE SAVED ON UNIT   38 AT END OF TIME STEP  304, STRESS PERIOD    1
1
  VOLUMETRIC BUDGET FOR ENTIRE MODEL AT END OF TIME STEP  304, STRESS PERIOD   1
  ------------------------------------------------------------------------------

     CUMULATIVE VOLUMES      L**3       RATES FOR THIS TIME STEP      L**3/T
     ------------------                 ------------------------

           IN:                                      IN:
           ---                                      ---
             STORAGE =   257541328.0000               STORAGE =      766520.1250
       CONSTANT HEAD =           0.0000         CONSTANT HEAD =           0.0000
       RIVER LEAKAGE =  1189224576.0000         RIVER LEAKAGE =      404342.5312
            RECHARGE =     6017269.0000              RECHARGE =       28359.7617

            TOTAL IN =  1452783232.0000              TOTAL IN =     1199222.3750

          OUT:                                     OUT:
          ----                                     ----
             STORAGE =  1432991872.0000               STORAGE =     1004212.0625
       CONSTANT HEAD =           0.0000         CONSTANT HEAD =           0.0000
       RIVER LEAKAGE =    20224572.0000         RIVER LEAKAGE =      196263.1562
            RECHARGE =           0.0000              RECHARGE =           0.0000

           TOTAL OUT =  1453216384.0000             TOTAL OUT =     1200475.2500

            IN - OUT =     -433152.0000              IN - OUT =       -1252.8750

 PERCENT DISCREPANCY =          -0.03     PERCENT DISCREPANCY =          -0.10






         TIME SUMMARY AT END OF TIME STEP  304 IN STRESS PERIOD    1
                    SECONDS     MINUTES      HOURS       DAYS        YEARS
                    -----------------------------------------------------------
   TIME STEP LENGTH  86400.      1440.0      24.000      1.0000     2.73785E-03
 STRESS PERIOD TIME 2.62656E+07 4.37760E+05  7296.0      304.00     0.83231    
         TOTAL TIME 2.62656E+07 4.37760E+05  7296.0      304.00     0.83231    
1
 
 SOLVING FOR HEAD 
                                                   Max.-Head-Change                        Max.-Flux-Residual
  Residual-Control   Outer-Iter.   Inner-Iter.     Column Row Layer    Max.-Head-Change    Column Row Layer    Max.-Flux-Residual            L2-New               L2-Old           Solver-Max-Delh
          0                 1           2            54   44     1       0.1559580665E+01      36   86    1       0.3219718757E+05      0.9608100821E+05      0.4839221531E+03      0.1559580665E+01
          0                 2           2            54   44     1      -0.1346910629E+00      36   86    1      -0.3219752598E+04      0.9608125828E+04      0.9608100821E+05     -0.1346910629E+00

    ------------------------------------------------
       NWT REQUIRED            2 OUTER ITERATIONS 
       AND A TOTAL OF          4 INNER ITERATIONS.
    ------------------------------------------------

 OUTPUT CONTROL FOR STRESS PERIOD    1   TIME STEP  305
    SAVE HEAD FOR ALL LAYERS
    SAVE DRAWDOWN FOR ALL LAYERS
    SAVE BUDGET
    PRINT BUDGET
 UBDSV1 SAVING "         STORAGE" ON UNIT   9 AT TIME STEP305, STRESS PERIOD   1
 UBDSV2 SAVING "   CONSTANT HEAD" ON UNIT   9 AT TIME STEP305, STRESS PERIOD   1
 UBDSV1 SAVING "FLOW RIGHT FACE " ON UNIT   9 AT TIME STEP305, STRESS PERIOD   1
 UBDSV1 SAVING "FLOW FRONT FACE " ON UNIT   9 AT TIME STEP305, STRESS PERIOD   1
 UBDSV4 SAVING "   RIVER LEAKAGE" ON UNIT   9 AT TIME STEP305, STRESS PERIOD   1
 UBDSV3 SAVING "        RECHARGE" ON UNIT   9 AT TIME STEP305, STRESS PERIOD   1

 HEAD WILL BE SAVED ON UNIT   37 AT END OF TIME STEP  305, STRESS PERIOD    1

 DRAWDOWN WILL BE SAVED ON UNIT   38 AT END OF TIME STEP  305, STRESS PERIOD    1
1
  VOLUMETRIC BUDGET FOR ENTIRE MODEL AT END OF TIME STEP  305, STRESS PERIOD   1
  ------------------------------------------------------------------------------

     CUMULATIVE VOLUMES      L**3       RATES FOR THIS TIME STEP      L**3/T
     ------------------                 ------------------------

           IN:                                      IN:
           ---                                      ---
             STORAGE =   258307808.0000               STORAGE =      766477.2500
       CONSTANT HEAD =           0.0000         CONSTANT HEAD =           0.0000
       RIVER LEAKAGE =  1189620480.0000         RIVER LEAKAGE =      395897.8438
            RECHARGE =     6048524.5000              RECHARGE =       31255.4922

            TOTAL IN =  1453976832.0000              TOTAL IN =     1193630.6250

          OUT:                                     OUT:
          ----                                     ----
             STORAGE =  1433990528.0000               STORAGE =      998633.6250
       CONSTANT HEAD =           0.0000         CONSTANT HEAD =           0.0000
       RIVER LEAKAGE =    20420504.0000         RIVER LEAKAGE =      195931.0625
            RECHARGE =           0.0000              RECHARGE =           0.0000

           TOTAL OUT =  1454411008.0000             TOTAL OUT =     1194564.7500

            IN - OUT =     -434176.0000              IN - OUT =        -934.1250

 PERCENT DISCREPANCY =          -0.03     PERCENT DISCREPANCY =          -0.08






         TIME SUMMARY AT END OF TIME STEP  305 IN STRESS PERIOD    1
                    SECONDS     MINUTES      HOURS       DAYS        YEARS
                    -----------------------------------------------------------
   TIME STEP LENGTH  86400.      1440.0      24.000      1.0000     2.73785E-03
 STRESS PERIOD TIME 2.63520E+07 4.39200E+05  7320.0      305.00     0.83504    
         TOTAL TIME 2.63520E+07 4.39200E+05  7320.0      305.00     0.83504    
1
 
 SOLVING FOR HEAD 
                                                   Max.-Head-Change                        Max.-Flux-Residual
  Residual-Control   Outer-Iter.   Inner-Iter.     Column Row Layer    Max.-Head-Change    Column Row Layer    Max.-Flux-Residual            L2-New               L2-Old           Solver-Max-Delh
          0                 1           2            54   44     1       0.1404256493E+01      26  115    1       0.2926025641E+06      0.8466396554E+06      0.4804485536E+03      0.1404256493E+01
          0                 2           2            29  111     1       0.1559819805E+03      29  111    1       0.4959192957E+05      0.9799398768E+05      0.8466396554E+06      0.1559819805E+03
          1                 2           0            29  111     1       0.1091873845E+03      29  111    1      -0.1897978134E+08      0.1897978382E+08      0.9799398768E+05      0.1559819805E+03
          2                 2           0            29  111     1       0.7643116786E+02      29  111    1      -0.1326897386E+08      0.1326900482E+08      0.1897978382E+08      0.1559819805E+03
          3                 2           0            29  111     1       0.5350181659E+02      29  111    1      -0.9271408687E+07      0.9271518625E+07      0.1326900482E+08      0.1559819805E+03
          4                 2           0            29  111     1       0.3745127097E+02      29  111    1      -0.6473113114E+07      0.6473363162E+07      0.9271518625E+07      0.1559819805E+03
          5                 2           0            29  111     1       0.2621588924E+02      29  111    1      -0.4514306247E+07      0.4514776528E+07      0.6473363162E+07      0.1559819805E+03
          6                 2           0            29  111     1       0.1835112215E+02      29  111    1      -0.3143141463E+07      0.3143942430E+07      0.4514776528E+07      0.1559819805E+03
          7                 2           0            29  111     1       0.1284578529E+02      29  111    1      -0.2183326131E+07      0.2184614889E+07      0.3143942430E+07      0.1559819805E+03
          8                 2           0            29  111     1       0.8992049548E+01      29  111    1      -0.1511778355E+07      0.1513782798E+07      0.2184614889E+07      0.1559819805E+03
                                                   Max.-Head-Change                        Max.-Flux-Residual
  Residual-Control   Outer-Iter.   Inner-Iter.     Column Row Layer    Max.-Head-Change    Column Row Layer    Max.-Flux-Residual            L2-New               L2-Old           Solver-Max-Delh
          9                 2           0            29  111     1       0.6294434577E+01      29  111    1      -0.1041708429E+07      0.1044765720E+07      0.1513782798E+07      0.1559819805E+03
         10                 2           0            29  111     1       0.4406104129E+01      29  111    1      -0.7126594862E+06      0.7172777069E+06      0.1044765720E+07      0.1559819805E+03
         11                 2           0            29  111     1       0.3084272837E+01      29  111    1      -0.4823252307E+06      0.4892862923E+06      0.7172777069E+06      0.1559819805E+03
         12                 2           0            29  111     1       0.2158990949E+01      29  111    1      -0.3210912546E+06      0.3316262275E+06      0.4892862923E+06      0.1559819805E+03
         13                 2           0            29  111     1       0.1511293639E+01      29  111    1      -0.2082274734E+06      0.2243092449E+06      0.3316262275E+06      0.1559819805E+03
         14                 2           0            29  111     1       0.1057905529E+01      29  111    1      -0.1292228279E+06      0.1539820950E+06      0.2243092449E+06      0.1559819805E+03
         15                 2           0            29  111     1       0.7405338578E+00      29  111    1      -0.7391957699E+05      0.1118721439E+06      0.1539820950E+06      0.1559819805E+03
          0                 3           2            29  111     1      -0.2742402853E+00      29  111    1      -0.3520730203E+05      0.9120537681E+05      0.1118721439E+06     -0.2742402853E+00
          0                 4           2            26   78     1       0.6360744789E-01      29  111    1      -0.1760364184E+04      0.4559506934E+04      0.9120537681E+05      0.6360744789E-01

    ------------------------------------------------
       NWT REQUIRED            4 OUTER ITERATIONS 
       AND A TOTAL OF          8 INNER ITERATIONS.
    ------------------------------------------------

 OUTPUT CONTROL FOR STRESS PERIOD    1   TIME STEP  306
    SAVE HEAD FOR ALL LAYERS
    SAVE DRAWDOWN FOR ALL LAYERS
    SAVE BUDGET
    PRINT BUDGET
 UBDSV1 SAVING "         STORAGE" ON UNIT   9 AT TIME STEP306, STRESS PERIOD   1
 UBDSV2 SAVING "   CONSTANT HEAD" ON UNIT   9 AT TIME STEP306, STRESS PERIOD   1
 UBDSV1 SAVING "FLOW RIGHT FACE " ON UNIT   9 AT TIME STEP306, STRESS PERIOD   1
 UBDSV1 SAVING "FLOW FRONT FACE " ON UNIT   9 AT TIME STEP306, STRESS PERIOD   1
 UBDSV4 SAVING "   RIVER LEAKAGE" ON UNIT   9 AT TIME STEP306, STRESS PERIOD   1
 UBDSV3 SAVING "        RECHARGE" ON UNIT   9 AT TIME STEP306, STRESS PERIOD   1

 HEAD WILL BE SAVED ON UNIT   37 AT END OF TIME STEP  306, STRESS PERIOD    1

 DRAWDOWN WILL BE SAVED ON UNIT   38 AT END OF TIME STEP  306, STRESS PERIOD    1
1
  VOLUMETRIC BUDGET FOR ENTIRE MODEL AT END OF TIME STEP  306, STRESS PERIOD   1
  ------------------------------------------------------------------------------

     CUMULATIVE VOLUMES      L**3       RATES FOR THIS TIME STEP      L**3/T
     ------------------                 ------------------------

           IN:                                      IN:
           ---                                      ---
             STORAGE =   259049760.0000               STORAGE =      741948.6250
       CONSTANT HEAD =           0.0000         CONSTANT HEAD =           0.0000
       RIVER LEAKAGE =  1191173632.0000         RIVER LEAKAGE =     1553161.0000
            RECHARGE =     6117195.5000              RECHARGE =       68670.9766

            TOTAL IN =  1456340608.0000              TOTAL IN =     2363780.5000

          OUT:                                     OUT:
          ----                                     ----
             STORAGE =  1436161024.0000               STORAGE =     2170500.7500
       CONSTANT HEAD =           0.0000         CONSTANT HEAD =           0.0000
       RIVER LEAKAGE =    20615632.0000         RIVER LEAKAGE =      195127.7969
            RECHARGE =           0.0000              RECHARGE =           0.0000

           TOTAL OUT =  1456776704.0000             TOTAL OUT =     2365628.5000

            IN - OUT =     -436096.0000              IN - OUT =       -1848.0000

 PERCENT DISCREPANCY =          -0.03     PERCENT DISCREPANCY =          -0.08






         TIME SUMMARY AT END OF TIME STEP  306 IN STRESS PERIOD    1
                    SECONDS     MINUTES      HOURS       DAYS        YEARS
                    -----------------------------------------------------------
   TIME STEP LENGTH  86400.      1440.0      24.000      1.0000     2.73785E-03
 STRESS PERIOD TIME 2.64384E+07 4.40640E+05  7344.0      306.00     0.83778    
         TOTAL TIME 2.64384E+07 4.40640E+05  7344.0      306.00     0.83778    
1
 
 SOLVING FOR HEAD 
                                                   Max.-Head-Change                        Max.-Flux-Residual
  Residual-Control   Outer-Iter.   Inner-Iter.     Column Row Layer    Max.-Head-Change    Column Row Layer    Max.-Flux-Residual            L2-New               L2-Old           Solver-Max-Delh
          0                 1           2            54   44     1       0.1261441011E+01      26  115    1      -0.2414110740E+06      0.6673019912E+06      0.2280699682E+03      0.1261441011E+01
          0                 2           2            26   78     1       0.1140750819E+00      26  115    1       0.2414111548E+05      0.6673030300E+05      0.6673019912E+06      0.1140750819E+00
          0                 3           2            26   78     1       0.1140440853E+00      26  115    1       0.1207055220E+04      0.3336546260E+04      0.6673030300E+05      0.1140440853E+00

    ------------------------------------------------
       NWT REQUIRED            3 OUTER ITERATIONS 
       AND A TOTAL OF          6 INNER ITERATIONS.
    ------------------------------------------------

 OUTPUT CONTROL FOR STRESS PERIOD    1   TIME STEP  307
    SAVE HEAD FOR ALL LAYERS
    SAVE DRAWDOWN FOR ALL LAYERS
    SAVE BUDGET
    PRINT BUDGET
 UBDSV1 SAVING "         STORAGE" ON UNIT   9 AT TIME STEP307, STRESS PERIOD   1
 UBDSV2 SAVING "   CONSTANT HEAD" ON UNIT   9 AT TIME STEP307, STRESS PERIOD   1
 UBDSV1 SAVING "FLOW RIGHT FACE " ON UNIT   9 AT TIME STEP307, STRESS PERIOD   1
 UBDSV1 SAVING "FLOW FRONT FACE " ON UNIT   9 AT TIME STEP307, STRESS PERIOD   1
 UBDSV4 SAVING "   RIVER LEAKAGE" ON UNIT   9 AT TIME STEP307, STRESS PERIOD   1
 UBDSV3 SAVING "        RECHARGE" ON UNIT   9 AT TIME STEP307, STRESS PERIOD   1

 HEAD WILL BE SAVED ON UNIT   37 AT END OF TIME STEP  307, STRESS PERIOD    1

 DRAWDOWN WILL BE SAVED ON UNIT   38 AT END OF TIME STEP  307, STRESS PERIOD    1
1
  VOLUMETRIC BUDGET FOR ENTIRE MODEL AT END OF TIME STEP  307, STRESS PERIOD   1
  ------------------------------------------------------------------------------

     CUMULATIVE VOLUMES      L**3       RATES FOR THIS TIME STEP      L**3/T
     ------------------                 ------------------------

           IN:                                      IN:
           ---                                      ---
             STORAGE =   259793664.0000               STORAGE =      743902.8125
       CONSTANT HEAD =           0.0000         CONSTANT HEAD =           0.0000
       RIVER LEAKAGE =  1191767296.0000         RIVER LEAKAGE =      593707.0625
            RECHARGE =     6221156.0000              RECHARGE =      103960.2812

            TOTAL IN =  1457782144.0000              TOTAL IN =     1441570.2500

          OUT:                                     OUT:
          ----                                     ----
             STORAGE =  1437393152.0000               STORAGE =     1232073.1250
       CONSTANT HEAD =           0.0000         CONSTANT HEAD =           0.0000
       RIVER LEAKAGE =    20824008.0000         RIVER LEAKAGE =      208375.2969
            RECHARGE =           0.0000              RECHARGE =           0.0000

           TOTAL OUT =  1458217216.0000             TOTAL OUT =     1440448.3750

            IN - OUT =     -435072.0000              IN - OUT =        1121.8750

 PERCENT DISCREPANCY =          -0.03     PERCENT DISCREPANCY =           0.08






         TIME SUMMARY AT END OF TIME STEP  307 IN STRESS PERIOD    1
                    SECONDS     MINUTES      HOURS       DAYS        YEARS
                    -----------------------------------------------------------
   TIME STEP LENGTH  86400.      1440.0      24.000      1.0000     2.73785E-03
 STRESS PERIOD TIME 2.65248E+07 4.42080E+05  7368.0      307.00     0.84052    
         TOTAL TIME 2.65248E+07 4.42080E+05  7368.0      307.00     0.84052    
1
 
 SOLVING FOR HEAD 
                                                   Max.-Head-Change                        Max.-Flux-Residual
  Residual-Control   Outer-Iter.   Inner-Iter.     Column Row Layer    Max.-Head-Change    Column Row Layer    Max.-Flux-Residual            L2-New               L2-Old           Solver-Max-Delh
          0                 1           2            54   44     1       0.1130121832E+01      36   86    1       0.3212653700E+05      0.1155504884E+06      0.1674360197E+03      0.1130121832E+01
          0                 2           2            26   78     1       0.1276729550E+00      36   86    1      -0.3212685634E+04      0.1155508861E+05      0.1155504884E+06      0.1276729550E+00
          0                 3           2            26   78     1       0.1276353702E+00      36   86    1      -0.1606344379E+03      0.5779846628E+03      0.1155508861E+05      0.1276353702E+00

    ------------------------------------------------
       NWT REQUIRED            3 OUTER ITERATIONS 
       AND A TOTAL OF          6 INNER ITERATIONS.
    ------------------------------------------------

 OUTPUT CONTROL FOR STRESS PERIOD    1   TIME STEP  308
    SAVE HEAD FOR ALL LAYERS
    SAVE DRAWDOWN FOR ALL LAYERS
    SAVE BUDGET
    PRINT BUDGET
 UBDSV1 SAVING "         STORAGE" ON UNIT   9 AT TIME STEP308, STRESS PERIOD   1
 UBDSV2 SAVING "   CONSTANT HEAD" ON UNIT   9 AT TIME STEP308, STRESS PERIOD   1
 UBDSV1 SAVING "FLOW RIGHT FACE " ON UNIT   9 AT TIME STEP308, STRESS PERIOD   1
 UBDSV1 SAVING "FLOW FRONT FACE " ON UNIT   9 AT TIME STEP308, STRESS PERIOD   1
 UBDSV4 SAVING "   RIVER LEAKAGE" ON UNIT   9 AT TIME STEP308, STRESS PERIOD   1
 UBDSV3 SAVING "        RECHARGE" ON UNIT   9 AT TIME STEP308, STRESS PERIOD   1

 HEAD WILL BE SAVED ON UNIT   37 AT END OF TIME STEP  308, STRESS PERIOD    1

 DRAWDOWN WILL BE SAVED ON UNIT   38 AT END OF TIME STEP  308, STRESS PERIOD    1
1
  VOLUMETRIC BUDGET FOR ENTIRE MODEL AT END OF TIME STEP  308, STRESS PERIOD   1
  ------------------------------------------------------------------------------

     CUMULATIVE VOLUMES      L**3       RATES FOR THIS TIME STEP      L**3/T
     ------------------                 ------------------------

           IN:                                      IN:
           ---                                      ---
             STORAGE =   260534656.0000               STORAGE =      740997.8125
       CONSTANT HEAD =           0.0000         CONSTANT HEAD =           0.0000
       RIVER LEAKAGE =  1192292992.0000         RIVER LEAKAGE =      525638.5625
            RECHARGE =     6326911.0000              RECHARGE =      105755.2109

            TOTAL IN =  1459154560.0000              TOTAL IN =     1372391.5000

          OUT:                                     OUT:
          ----                                     ----
             STORAGE =  1438558720.0000               STORAGE =     1165545.3750
       CONSTANT HEAD =           0.0000         CONSTANT HEAD =           0.0000
       RIVER LEAKAGE =    21030820.0000         RIVER LEAKAGE =      206812.5625
            RECHARGE =           0.0000              RECHARGE =           0.0000

           TOTAL OUT =  1459589504.0000             TOTAL OUT =     1372358.0000

            IN - OUT =     -434944.0000              IN - OUT =          33.5000

 PERCENT DISCREPANCY =          -0.03     PERCENT DISCREPANCY =           0.00






         TIME SUMMARY AT END OF TIME STEP  308 IN STRESS PERIOD    1
                    SECONDS     MINUTES      HOURS       DAYS        YEARS
                    -----------------------------------------------------------
   TIME STEP LENGTH  86400.      1440.0      24.000      1.0000     2.73785E-03
 STRESS PERIOD TIME 2.66112E+07 4.43520E+05  7392.0      308.00     0.84326    
         TOTAL TIME 2.66112E+07 4.43520E+05  7392.0      308.00     0.84326    
1
 
 SOLVING FOR HEAD 
                                                   Max.-Head-Change                        Max.-Flux-Residual
  Residual-Control   Outer-Iter.   Inner-Iter.     Column Row Layer    Max.-Head-Change    Column Row Layer    Max.-Flux-Residual            L2-New               L2-Old           Solver-Max-Delh
          0                 1           2            54   44     1       0.1009112784E+01      36   86    1       0.3210149536E+05      0.1081056116E+06      0.3317915505E+02      0.1009112784E+01
          0                 2           2            26   78     1       0.1119584488E+00      36   86    1      -0.3210182009E+04      0.1081059689E+05      0.1081056116E+06      0.1119584488E+00
          0                 3           2            26   78     1       0.1119234542E+00      36   86    1      -0.1605092610E+03      0.5407255711E+03      0.1081059689E+05      0.1119234542E+00

    ------------------------------------------------
       NWT REQUIRED            3 OUTER ITERATIONS 
       AND A TOTAL OF          6 INNER ITERATIONS.
    ------------------------------------------------

 OUTPUT CONTROL FOR STRESS PERIOD    1   TIME STEP  309
    SAVE HEAD FOR ALL LAYERS
    SAVE DRAWDOWN FOR ALL LAYERS
    SAVE BUDGET
    PRINT BUDGET
 UBDSV1 SAVING "         STORAGE" ON UNIT   9 AT TIME STEP309, STRESS PERIOD   1
 UBDSV2 SAVING "   CONSTANT HEAD" ON UNIT   9 AT TIME STEP309, STRESS PERIOD   1
 UBDSV1 SAVING "FLOW RIGHT FACE " ON UNIT   9 AT TIME STEP309, STRESS PERIOD   1
 UBDSV1 SAVING "FLOW FRONT FACE " ON UNIT   9 AT TIME STEP309, STRESS PERIOD   1
 UBDSV4 SAVING "   RIVER LEAKAGE" ON UNIT   9 AT TIME STEP309, STRESS PERIOD   1
 UBDSV3 SAVING "        RECHARGE" ON UNIT   9 AT TIME STEP309, STRESS PERIOD   1

 HEAD WILL BE SAVED ON UNIT   37 AT END OF TIME STEP  309, STRESS PERIOD    1

 DRAWDOWN WILL BE SAVED ON UNIT   38 AT END OF TIME STEP  309, STRESS PERIOD    1
1
  VOLUMETRIC BUDGET FOR ENTIRE MODEL AT END OF TIME STEP  309, STRESS PERIOD   1
  ------------------------------------------------------------------------------

     CUMULATIVE VOLUMES      L**3       RATES FOR THIS TIME STEP      L**3/T
     ------------------                 ------------------------

           IN:                                      IN:
           ---                                      ---
             STORAGE =   261281440.0000               STORAGE =      746791.9375
       CONSTANT HEAD =           0.0000         CONSTANT HEAD =           0.0000
       RIVER LEAKAGE =  1192770688.0000         RIVER LEAKAGE =      477666.6562
            RECHARGE =     6410235.0000              RECHARGE =       83324.2500

            TOTAL IN =  1460462336.0000              TOTAL IN =     1307782.7500

          OUT:                                     OUT:
          ----                                     ----
             STORAGE =  1439662080.0000               STORAGE =     1103377.5000
       CONSTANT HEAD =           0.0000         CONSTANT HEAD =           0.0000
       RIVER LEAKAGE =    21235190.0000         RIVER LEAKAGE =      204369.1875
            RECHARGE =           0.0000              RECHARGE =           0.0000

           TOTAL OUT =  1460897280.0000             TOTAL OUT =     1307746.7500

            IN - OUT =     -434944.0000              IN - OUT =          36.0000

 PERCENT DISCREPANCY =          -0.03     PERCENT DISCREPANCY =           0.00






         TIME SUMMARY AT END OF TIME STEP  309 IN STRESS PERIOD    1
                    SECONDS     MINUTES      HOURS       DAYS        YEARS
                    -----------------------------------------------------------
   TIME STEP LENGTH  86400.      1440.0      24.000      1.0000     2.73785E-03
 STRESS PERIOD TIME 2.66976E+07 4.44960E+05  7416.0      309.00     0.84600    
         TOTAL TIME 2.66976E+07 4.44960E+05  7416.0      309.00     0.84600    
1
 
 SOLVING FOR HEAD 
                                                   Max.-Head-Change                        Max.-Flux-Residual
  Residual-Control   Outer-Iter.   Inner-Iter.     Column Row Layer    Max.-Head-Change    Column Row Layer    Max.-Flux-Residual            L2-New               L2-Old           Solver-Max-Delh
          0                 1           2            55   44     1       0.9034214621E+00      36   86    1       0.3207621668E+05      0.1019021507E+06      0.3069627370E+02      0.9034214621E+00
          0                 2           2            26   78     1       0.8796934911E-01      36   86    1      -0.3207654627E+04      0.1019024665E+05      0.1019021507E+06      0.8796934911E-01
          0                 3           2            26   78     1       0.8794081604E-01      36   86    1      -0.1603828953E+03      0.5096537882E+03      0.1019024665E+05      0.8794081604E-01

    ------------------------------------------------
       NWT REQUIRED            3 OUTER ITERATIONS 
       AND A TOTAL OF          6 INNER ITERATIONS.
    ------------------------------------------------

 OUTPUT CONTROL FOR STRESS PERIOD    1   TIME STEP  310
    SAVE HEAD FOR ALL LAYERS
    SAVE DRAWDOWN FOR ALL LAYERS
    SAVE BUDGET
    PRINT BUDGET
 UBDSV1 SAVING "         STORAGE" ON UNIT   9 AT TIME STEP310, STRESS PERIOD   1
 UBDSV2 SAVING "   CONSTANT HEAD" ON UNIT   9 AT TIME STEP310, STRESS PERIOD   1
 UBDSV1 SAVING "FLOW RIGHT FACE " ON UNIT   9 AT TIME STEP310, STRESS PERIOD   1
 UBDSV1 SAVING "FLOW FRONT FACE " ON UNIT   9 AT TIME STEP310, STRESS PERIOD   1
 UBDSV4 SAVING "   RIVER LEAKAGE" ON UNIT   9 AT TIME STEP310, STRESS PERIOD   1
 UBDSV3 SAVING "        RECHARGE" ON UNIT   9 AT TIME STEP310, STRESS PERIOD   1

 HEAD WILL BE SAVED ON UNIT   37 AT END OF TIME STEP  310, STRESS PERIOD    1

 DRAWDOWN WILL BE SAVED ON UNIT   38 AT END OF TIME STEP  310, STRESS PERIOD    1
1
  VOLUMETRIC BUDGET FOR ENTIRE MODEL AT END OF TIME STEP  310, STRESS PERIOD   1
  ------------------------------------------------------------------------------

     CUMULATIVE VOLUMES      L**3       RATES FOR THIS TIME STEP      L**3/T
     ------------------                 ------------------------

           IN:                                      IN:
           ---                                      ---
             STORAGE =   262034736.0000               STORAGE =      753292.6250
       CONSTANT HEAD =           0.0000         CONSTANT HEAD =           0.0000
       RIVER LEAKAGE =  1193206912.0000         RIVER LEAKAGE =      436195.0312
            RECHARGE =     6466056.5000              RECHARGE =       55821.4141

            TOTAL IN =  1461707648.0000              TOTAL IN =     1245309.0000

          OUT:                                     OUT:
          ----                                     ----
             STORAGE =  1440706304.0000               STORAGE =     1044275.6875
       CONSTANT HEAD =           0.0000         CONSTANT HEAD =           0.0000
       RIVER LEAKAGE =    21436196.0000         RIVER LEAKAGE =      201005.8906
            RECHARGE =           0.0000              RECHARGE =           0.0000

           TOTAL OUT =  1462142464.0000             TOTAL OUT =     1245281.6250

            IN - OUT =     -434816.0000              IN - OUT =          27.3750

 PERCENT DISCREPANCY =          -0.03     PERCENT DISCREPANCY =           0.00






         TIME SUMMARY AT END OF TIME STEP  310 IN STRESS PERIOD    1
                    SECONDS     MINUTES      HOURS       DAYS        YEARS
                    -----------------------------------------------------------
   TIME STEP LENGTH  86400.      1440.0      24.000      1.0000     2.73785E-03
 STRESS PERIOD TIME 2.67840E+07 4.46400E+05  7440.0      310.00     0.84873    
         TOTAL TIME 2.67840E+07 4.46400E+05  7440.0      310.00     0.84873    
1
 
 SOLVING FOR HEAD 
                                                   Max.-Head-Change                        Max.-Flux-Residual
  Residual-Control   Outer-Iter.   Inner-Iter.     Column Row Layer    Max.-Head-Change    Column Row Layer    Max.-Flux-Residual            L2-New               L2-Old           Solver-Max-Delh
          0                 1           2            55   44     1       0.8156163471E+00      26  115    1       0.7347172493E+05      0.2365160997E+06      0.2816522711E+02      0.8156163471E+00
          0                 2           2            55   44     1      -0.7043959952E-01      26  115    1      -0.7347174689E+04      0.2365163666E+05      0.2365160997E+06     -0.7043959952E-01
          0                 3           2            26   78     1       0.6745379207E-01      26  115    1      -0.3673585641E+03      0.1182625551E+04      0.2365163666E+05      0.6745379207E-01

    ------------------------------------------------
       NWT REQUIRED            3 OUTER ITERATIONS 
       AND A TOTAL OF          6 INNER ITERATIONS.
    ------------------------------------------------

 OUTPUT CONTROL FOR STRESS PERIOD    1   TIME STEP  311
    SAVE HEAD FOR ALL LAYERS
    SAVE DRAWDOWN FOR ALL LAYERS
    SAVE BUDGET
    PRINT BUDGET
 UBDSV1 SAVING "         STORAGE" ON UNIT   9 AT TIME STEP311, STRESS PERIOD   1
 UBDSV2 SAVING "   CONSTANT HEAD" ON UNIT   9 AT TIME STEP311, STRESS PERIOD   1
 UBDSV1 SAVING "FLOW RIGHT FACE " ON UNIT   9 AT TIME STEP311, STRESS PERIOD   1
 UBDSV1 SAVING "FLOW FRONT FACE " ON UNIT   9 AT TIME STEP311, STRESS PERIOD   1
 UBDSV4 SAVING "   RIVER LEAKAGE" ON UNIT   9 AT TIME STEP311, STRESS PERIOD   1
 UBDSV3 SAVING "        RECHARGE" ON UNIT   9 AT TIME STEP311, STRESS PERIOD   1

 HEAD WILL BE SAVED ON UNIT   37 AT END OF TIME STEP  311, STRESS PERIOD    1

 DRAWDOWN WILL BE SAVED ON UNIT   38 AT END OF TIME STEP  311, STRESS PERIOD    1
1
  VOLUMETRIC BUDGET FOR ENTIRE MODEL AT END OF TIME STEP  311, STRESS PERIOD   1
  ------------------------------------------------------------------------------

     CUMULATIVE VOLUMES      L**3       RATES FOR THIS TIME STEP      L**3/T
     ------------------                 ------------------------

           IN:                                      IN:
           ---                                      ---
             STORAGE =   262782416.0000               STORAGE =      747679.2500
       CONSTANT HEAD =           0.0000         CONSTANT HEAD =           0.0000
       RIVER LEAKAGE =  1193926400.0000         RIVER LEAKAGE =      719550.4375
            RECHARGE =     6500206.0000              RECHARGE =       34149.3867

            TOTAL IN =  1463209088.0000              TOTAL IN =     1501379.0000

          OUT:                                     OUT:
          ----                                     ----
             STORAGE =  1442011392.0000               STORAGE =     1305120.6250
       CONSTANT HEAD =           0.0000         CONSTANT HEAD =           0.0000
       RIVER LEAKAGE =    21632908.0000         RIVER LEAKAGE =      196712.4375
            RECHARGE =           0.0000              RECHARGE =           0.0000

           TOTAL OUT =  1463644288.0000             TOTAL OUT =     1501833.0000

            IN - OUT =     -435200.0000              IN - OUT =        -454.0000

 PERCENT DISCREPANCY =          -0.03     PERCENT DISCREPANCY =          -0.03






         TIME SUMMARY AT END OF TIME STEP  311 IN STRESS PERIOD    1
                    SECONDS     MINUTES      HOURS       DAYS        YEARS
                    -----------------------------------------------------------
   TIME STEP LENGTH  86400.      1440.0      24.000      1.0000     2.73785E-03
 STRESS PERIOD TIME 2.68704E+07 4.47840E+05  7464.0      311.00     0.85147    
         TOTAL TIME 2.68704E+07 4.47840E+05  7464.0      311.00     0.85147    
1
 
 SOLVING FOR HEAD 
                                                   Max.-Head-Change                        Max.-Flux-Residual
  Residual-Control   Outer-Iter.   Inner-Iter.     Column Row Layer    Max.-Head-Change    Column Row Layer    Max.-Flux-Residual            L2-New               L2-Old           Solver-Max-Delh
          0                 1           2            55   44     1       0.7351113975E+00      26  115    1      -0.8319952020E+05      0.2440880989E+06      0.5999410650E+02      0.7351113975E+00
          0                 2           2            35   83     1       0.9306059815E+01      26  115    1       0.8319954796E+04      0.2433357889E+05      0.2440880989E+06      0.9306059815E+01
          1                 2           0            35   83     1       0.6514241760E+01      35   83    1      -0.4216779098E+07      0.4220350547E+07      0.2433357889E+05      0.9306059815E+01
          2                 2           0            35   83     1       0.4559969154E+01      35   83    1      -0.2950976358E+07      0.2952521986E+07      0.4220350547E+07      0.9306059815E+01
          3                 2           0            35   83     1       0.3191978354E+01      35   83    1      -0.2064914455E+07      0.2065348144E+07      0.2952521986E+07      0.9306059815E+01
          4                 2           0            35   83     1       0.2234384809E+01      35   83    1      -0.1444671134E+07      0.1444764707E+07      0.2065348144E+07      0.9306059815E+01
          5                 2           0            35   83     1       0.1564069340E+01      35   83    1      -0.1010500816E+07      0.1010673921E+07      0.1444764707E+07      0.9306059815E+01
          6                 2           0            35   83     1       0.1094848519E+01      35   83    1      -0.7065815992E+06      0.7068749649E+06      0.1010673921E+07      0.9306059815E+01
          7                 2           0            35   83     1       0.7663939505E+00      35   83    1      -0.4938381509E+06      0.4943069896E+06      0.7068749649E+06      0.9306059815E+01
          8                 2           0            35   83     1       0.5364757562E+00      35   83    1      -0.3449177396E+06      0.3456402260E+06      0.4943069896E+06      0.9306059815E+01
                                                   Max.-Head-Change                        Max.-Flux-Residual
  Residual-Control   Outer-Iter.   Inner-Iter.     Column Row Layer    Max.-Head-Change    Column Row Layer    Max.-Flux-Residual            L2-New               L2-Old           Solver-Max-Delh
          9                 2           0            35   83     1       0.3755330229E+00      35   83    1      -0.2406734534E+06      0.2417609610E+06      0.3456402260E+06      0.9306059815E+01
         10                 2           0            35   83     1       0.2628731116E+00      35   83    1      -0.1677024544E+06      0.1693137971E+06      0.2417609610E+06      0.9306059815E+01
         11                 2           0            35   83     1       0.1840111750E+00      35   83    1      -0.1166227559E+06      0.1189831199E+06      0.1693137971E+06      0.9306059815E+01
         12                 2           0            35   83     1       0.1288078203E+00      35   83    1      -0.8086696758E+05      0.8429010244E+05      0.1189831199E+06      0.9306059815E+01
         13                 2           0            35   83     1       0.9016547267E-01      35   83    1      -0.5583791618E+05      0.6074323506E+05      0.8429010244E+05      0.9306059815E+01
         14                 2           0            35   83     1       0.6311582979E-01      35   83    1      -0.3831758051E+05      0.4521820263E+05      0.6074323506E+05      0.9306059815E+01
         15                 2           0            35   83     1       0.4418108010E-01      35   83    1      -0.2605334574E+05      0.3547454549E+05      0.4521820263E+05      0.9306059815E+01
         16                 2           0            35   83     1       0.3092675554E-01      35   83    1      -0.1746838155E+05      0.2978369709E+05      0.3547454549E+05      0.9306059815E+01
          0                 3           2            29  111     1      -0.2601826961E+00      35   83    1      -0.1145890672E+05      0.2673600205E+05      0.2978369709E+05     -0.2601826961E+00
          1                 3           0            29  111     1      -0.1821278842E+00      29  111    1       0.1734969195E+06      0.1735129945E+06      0.2673600205E+05     -0.2601826961E+00
                                                   Max.-Head-Change                        Max.-Flux-Residual
  Residual-Control   Outer-Iter.   Inner-Iter.     Column Row Layer    Max.-Head-Change    Column Row Layer    Max.-Flux-Residual            L2-New               L2-Old           Solver-Max-Delh
          2                 3           0            29  111     1      -0.1274895167E+00      29  111    1       0.9537745548E+05      0.9584308779E+05      0.1735129945E+06     -0.2601826961E+00
          3                 3           0            29  111     1      -0.8924266020E-01      29  111    1       0.4069364799E+05      0.4323667332E+05      0.9584308779E+05     -0.2601826961E+00
          0                 4           2            26   78     1       0.5420554008E-01      35   83    1      -0.8226110192E+04      0.1840315429E+05      0.4323667332E+05      0.5420554008E-01
          0                 5           2            26   78     1       0.5418744487E-01      35   83    1      -0.1459976462E+04      0.1676165896E+04      0.1840315429E+05      0.5418744487E-01

    ------------------------------------------------
       NWT REQUIRED            5 OUTER ITERATIONS 
       AND A TOTAL OF         10 INNER ITERATIONS.
    ------------------------------------------------

 OUTPUT CONTROL FOR STRESS PERIOD    1   TIME STEP  312
    SAVE HEAD FOR ALL LAYERS
    SAVE DRAWDOWN FOR ALL LAYERS
    SAVE BUDGET
    PRINT BUDGET
 UBDSV1 SAVING "         STORAGE" ON UNIT   9 AT TIME STEP312, STRESS PERIOD   1
 UBDSV2 SAVING "   CONSTANT HEAD" ON UNIT   9 AT TIME STEP312, STRESS PERIOD   1
 UBDSV1 SAVING "FLOW RIGHT FACE " ON UNIT   9 AT TIME STEP312, STRESS PERIOD   1
 UBDSV1 SAVING "FLOW FRONT FACE " ON UNIT   9 AT TIME STEP312, STRESS PERIOD   1
 UBDSV4 SAVING "   RIVER LEAKAGE" ON UNIT   9 AT TIME STEP312, STRESS PERIOD   1
 UBDSV3 SAVING "        RECHARGE" ON UNIT   9 AT TIME STEP312, STRESS PERIOD   1

 HEAD WILL BE SAVED ON UNIT   37 AT END OF TIME STEP  312, STRESS PERIOD    1

 DRAWDOWN WILL BE SAVED ON UNIT   38 AT END OF TIME STEP  312, STRESS PERIOD    1
1
  VOLUMETRIC BUDGET FOR ENTIRE MODEL AT END OF TIME STEP  312, STRESS PERIOD   1
  ------------------------------------------------------------------------------

     CUMULATIVE VOLUMES      L**3       RATES FOR THIS TIME STEP      L**3/T
     ------------------                 ------------------------

           IN:                                      IN:
           ---                                      ---
             STORAGE =   263543808.0000               STORAGE =      761395.0000
       CONSTANT HEAD =           0.0000         CONSTANT HEAD =           0.0000
       RIVER LEAKAGE =  1194326400.0000         RIVER LEAKAGE =      399952.2812
            RECHARGE =     6520665.5000              RECHARGE =       20459.3008

            TOTAL IN =  1464390912.0000              TOTAL IN =     1181806.6250

          OUT:                                     OUT:
          ----                                     ----
             STORAGE =  1442995584.0000               STORAGE =      984224.8125
       CONSTANT HEAD =           0.0000         CONSTANT HEAD =           0.0000
       RIVER LEAKAGE =    21830442.0000         RIVER LEAKAGE =      197534.4844
            RECHARGE =           0.0000              RECHARGE =           0.0000

           TOTAL OUT =  1464825984.0000             TOTAL OUT =     1181759.2500

            IN - OUT =     -435072.0000              IN - OUT =          47.3750

 PERCENT DISCREPANCY =          -0.03     PERCENT DISCREPANCY =           0.00






         TIME SUMMARY AT END OF TIME STEP  312 IN STRESS PERIOD    1
                    SECONDS     MINUTES      HOURS       DAYS        YEARS
                    -----------------------------------------------------------
   TIME STEP LENGTH  86400.      1440.0      24.000      1.0000     2.73785E-03
 STRESS PERIOD TIME 2.69568E+07 4.49280E+05  7488.0      312.00     0.85421    
         TOTAL TIME 2.69568E+07 4.49280E+05  7488.0      312.00     0.85421    
1
 
 SOLVING FOR HEAD 
                                                   Max.-Head-Change                        Max.-Flux-Residual
  Residual-Control   Outer-Iter.   Inner-Iter.     Column Row Layer    Max.-Head-Change    Column Row Layer    Max.-Flux-Residual            L2-New               L2-Old           Solver-Max-Delh
          0                 1           2            55   44     1       0.6612506735E+00      36   86    1       0.3200093015E+05      0.1017944072E+06      0.2642593470E+03      0.6612506735E+00
          0                 2           2            52   48     1      -0.1519241526E+00      36   86    1      -0.3200126130E+04      0.1040957720E+05      0.1017944072E+06     -0.1519241526E+00
          0                 3           2            26   78     1       0.4713160547E-01      29  111    1       0.6341504370E+03      0.8197916785E+03      0.1040957720E+05      0.4713160547E-01
          0                 4           2            29  111     1       0.1987651938E+01      29  111    1       0.6318632201E+03      0.6324559634E+03      0.8197916785E+03      0.1987651938E+01
          1                 4           0            29  111     1       0.1391356333E+01      29  111    1      -0.2296672325E+06      0.2296672404E+06      0.6324559634E+03      0.1987651938E+01
          2                 4           0            29  111     1       0.9739494166E+00      29  111    1      -0.1569324701E+06      0.1569324760E+06      0.2296672404E+06      0.1987651938E+01
          3                 4           0            29  111     1       0.6817645800E+00      29  111    1      -0.1060181372E+06      0.1060181424E+06      0.1569324760E+06      0.1987651938E+01
          4                 4           0            29  111     1       0.4772351979E+00      29  111    1      -0.7037810488E+05      0.7037811042E+05      0.1060181424E+06      0.1987651938E+01
          5                 4           0            29  111     1       0.3340646328E+00      29  111    1      -0.4543008265E+05      0.4543008998E+05      0.7037811042E+05      0.1987651938E+01
          6                 4           0            29  111     1       0.2338452390E+00      29  111    1      -0.2796646739E+05      0.2796647882E+05      0.4543008998E+05      0.1987651938E+01
                                                   Max.-Head-Change                        Max.-Flux-Residual
  Residual-Control   Outer-Iter.   Inner-Iter.     Column Row Layer    Max.-Head-Change    Column Row Layer    Max.-Flux-Residual            L2-New               L2-Old           Solver-Max-Delh
          7                 4           0            29  111     1       0.1636916645E+00      29  111    1      -0.1574193691E+05      0.1574195748E+05      0.2796647882E+05      0.1987651938E+01
          8                 4           0            29  111     1       0.1145841632E+00      29  111    1      -0.7184765726E+04      0.7184812059E+04      0.1574195748E+05      0.1987651938E+01
          9                 4           0            29  111     1       0.8020891288E-01      29  111    1      -0.1194745998E+04      0.1195032568E+04      0.7184812059E+04      0.1987651938E+01
          0                 5           2            29  111     1       0.1899422107E+01      29  111    1       0.6038147087E+03      0.6043951189E+03      0.1195032568E+04      0.1899422107E+01
          1                 5           0            29  111     1       0.1329595452E+01      29  111    1      -0.2286888588E+06      0.2286888661E+06      0.6043951189E+03      0.1899422107E+01
          2                 5           0            29  111     1       0.9307168007E+00      29  111    1      -0.1591827180E+06      0.1591827237E+06      0.2286888661E+06      0.1899422107E+01
          3                 5           0            29  111     1       0.6515017494E+00      29  111    1      -0.1105284203E+06      0.1105284253E+06      0.1591827237E+06      0.1899422107E+01
          4                 5           0            29  111     1       0.4560512168E+00      29  111    1      -0.7647041256E+05      0.7647041773E+05      0.1105284253E+06      0.1899422107E+01
          5                 5           0            29  111     1       0.3192358463E+00      29  111    1      -0.5262980752E+05      0.5262981392E+05      0.7647041773E+05      0.1899422107E+01
          6                 5           0            29  111     1       0.2234650886E+00      29  111    1      -0.3594138428E+05      0.3594139315E+05      0.5262981392E+05      0.1899422107E+01
                                                   Max.-Head-Change                        Max.-Flux-Residual
  Residual-Control   Outer-Iter.   Inner-Iter.     Column Row Layer    Max.-Head-Change    Column Row Layer    Max.-Flux-Residual            L2-New               L2-Old           Solver-Max-Delh
          7                 5           0            29  111     1       0.1564255594E+00      29  111    1      -0.2425948821E+05      0.2425950130E+05      0.3594139315E+05      0.1899422107E+01
          8                 5           0            29  111     1       0.1094978897E+00      29  111    1      -0.1608216110E+05      0.1608218113E+05      0.2425950130E+05      0.1899422107E+01
          9                 5           0            29  111     1       0.7664852148E-01      29  111    1      -0.1035803222E+05      0.1035806390E+05      0.1608218113E+05      0.1899422107E+01
         10                 5           0            29  111     1       0.5365396412E-01      29  111    1      -0.6351142072E+04      0.6351194597E+04      0.1035806390E+05      0.1899422107E+01
         11                 5           0            29  111     1       0.3755777425E-01      29  111    1      -0.3546319017E+04      0.3546414349E+04      0.6351194597E+04      0.1899422107E+01
         12                 5           0            29  111     1       0.2629044153E-01      29  111    1      -0.1582942912E+04      0.1583158659E+04      0.3546414349E+04      0.1899422107E+01
          0                 6           2            26   78     1       0.4711496130E-01      29  111    1      -0.2085796614E+03      0.2102229961E+03      0.1583158659E+04      0.4711496130E-01

    ------------------------------------------------
       NWT REQUIRED            6 OUTER ITERATIONS 
       AND A TOTAL OF         12 INNER ITERATIONS.
    ------------------------------------------------

 OUTPUT CONTROL FOR STRESS PERIOD    1   TIME STEP  313
    SAVE HEAD FOR ALL LAYERS
    SAVE DRAWDOWN FOR ALL LAYERS
    SAVE BUDGET
    PRINT BUDGET
 UBDSV1 SAVING "         STORAGE" ON UNIT   9 AT TIME STEP313, STRESS PERIOD   1
 UBDSV2 SAVING "   CONSTANT HEAD" ON UNIT   9 AT TIME STEP313, STRESS PERIOD   1
 UBDSV1 SAVING "FLOW RIGHT FACE " ON UNIT   9 AT TIME STEP313, STRESS PERIOD   1
 UBDSV1 SAVING "FLOW FRONT FACE " ON UNIT   9 AT TIME STEP313, STRESS PERIOD   1
 UBDSV4 SAVING "   RIVER LEAKAGE" ON UNIT   9 AT TIME STEP313, STRESS PERIOD   1
 UBDSV3 SAVING "        RECHARGE" ON UNIT   9 AT TIME STEP313, STRESS PERIOD   1

 HEAD WILL BE SAVED ON UNIT   37 AT END OF TIME STEP  313, STRESS PERIOD    1

 DRAWDOWN WILL BE SAVED ON UNIT   38 AT END OF TIME STEP  313, STRESS PERIOD    1
1
  VOLUMETRIC BUDGET FOR ENTIRE MODEL AT END OF TIME STEP  313, STRESS PERIOD   1
  ------------------------------------------------------------------------------

     CUMULATIVE VOLUMES      L**3       RATES FOR THIS TIME STEP      L**3/T
     ------------------                 ------------------------

           IN:                                      IN:
           ---                                      ---
             STORAGE =   264288432.0000               STORAGE =      744621.0000
       CONSTANT HEAD =           0.0000         CONSTANT HEAD =           0.0000
       RIVER LEAKAGE =  1194753536.0000         RIVER LEAKAGE =      427193.8750
            RECHARGE =     6587097.0000              RECHARGE =       66431.2500

            TOTAL IN =  1465629056.0000              TOTAL IN =     1238246.1250

          OUT:                                     OUT:
          ----                                     ----
             STORAGE =  1444033792.0000               STORAGE =     1038219.3750
       CONSTANT HEAD =           0.0000         CONSTANT HEAD =           0.0000
       RIVER LEAKAGE =    22030446.0000         RIVER LEAKAGE =      200003.5625
            RECHARGE =           0.0000              RECHARGE =           0.0000

           TOTAL OUT =  1466064256.0000             TOTAL OUT =     1238223.0000

            IN - OUT =     -435200.0000              IN - OUT =          23.1250

 PERCENT DISCREPANCY =          -0.03     PERCENT DISCREPANCY =           0.00






         TIME SUMMARY AT END OF TIME STEP  313 IN STRESS PERIOD    1
                    SECONDS     MINUTES      HOURS       DAYS        YEARS
                    -----------------------------------------------------------
   TIME STEP LENGTH  86400.      1440.0      24.000      1.0000     2.73785E-03
 STRESS PERIOD TIME 2.70432E+07 4.50720E+05  7512.0      313.00     0.85695    
         TOTAL TIME 2.70432E+07 4.50720E+05  7512.0      313.00     0.85695    
1
 
 SOLVING FOR HEAD 
                                                   Max.-Head-Change                        Max.-Flux-Residual
  Residual-Control   Outer-Iter.   Inner-Iter.     Column Row Layer    Max.-Head-Change    Column Row Layer    Max.-Flux-Residual            L2-New               L2-Old           Solver-Max-Delh
          0                 1           2            55   44     1       0.5940527770E+00      36   86    1       0.3197526642E+05      0.1016750241E+06      0.2102229961E+03      0.5940527770E+00
          0                 2           2            55   44     1      -0.5130455898E-01      36   86    1      -0.3197559333E+04      0.1016752723E+05      0.1016750241E+06     -0.5130455898E-01
          0                 3           2            26   78     1       0.4873016364E-01      36   86    1      -0.1598781289E+03      0.5084526829E+03      0.1016752723E+05      0.4873016364E-01

    ------------------------------------------------
       NWT REQUIRED            3 OUTER ITERATIONS 
       AND A TOTAL OF          6 INNER ITERATIONS.
    ------------------------------------------------

 OUTPUT CONTROL FOR STRESS PERIOD    1   TIME STEP  314
    SAVE HEAD FOR ALL LAYERS
    SAVE DRAWDOWN FOR ALL LAYERS
    SAVE BUDGET
    PRINT BUDGET
 UBDSV1 SAVING "         STORAGE" ON UNIT   9 AT TIME STEP314, STRESS PERIOD   1
 UBDSV2 SAVING "   CONSTANT HEAD" ON UNIT   9 AT TIME STEP314, STRESS PERIOD   1
 UBDSV1 SAVING "FLOW RIGHT FACE " ON UNIT   9 AT TIME STEP314, STRESS PERIOD   1
 UBDSV1 SAVING "FLOW FRONT FACE " ON UNIT   9 AT TIME STEP314, STRESS PERIOD   1
 UBDSV4 SAVING "   RIVER LEAKAGE" ON UNIT   9 AT TIME STEP314, STRESS PERIOD   1
 UBDSV3 SAVING "        RECHARGE" ON UNIT   9 AT TIME STEP314, STRESS PERIOD   1

 HEAD WILL BE SAVED ON UNIT   37 AT END OF TIME STEP  314, STRESS PERIOD    1

 DRAWDOWN WILL BE SAVED ON UNIT   38 AT END OF TIME STEP  314, STRESS PERIOD    1
1
  VOLUMETRIC BUDGET FOR ENTIRE MODEL AT END OF TIME STEP  314, STRESS PERIOD   1
  ------------------------------------------------------------------------------

     CUMULATIVE VOLUMES      L**3       RATES FOR THIS TIME STEP      L**3/T
     ------------------                 ------------------------

           IN:                                      IN:
           ---                                      ---
             STORAGE =   265022336.0000               STORAGE =      733909.3125
       CONSTANT HEAD =           0.0000         CONSTANT HEAD =           0.0000
       RIVER LEAKAGE =  1195206784.0000         RIVER LEAKAGE =      453271.5000
            RECHARGE =     6692583.5000              RECHARGE =      105486.4531

            TOTAL IN =  1466921728.0000              TOTAL IN =     1292667.2500

          OUT:                                     OUT:
          ----                                     ----
             STORAGE =  1445124480.0000               STORAGE =     1090685.7500
       CONSTANT HEAD =           0.0000         CONSTANT HEAD =           0.0000
       RIVER LEAKAGE =    22232526.0000         RIVER LEAKAGE =      202080.4688
            RECHARGE =           0.0000              RECHARGE =           0.0000

           TOTAL OUT =  1467357056.0000             TOTAL OUT =     1292766.2500

            IN - OUT =     -435328.0000              IN - OUT =         -99.0000

 PERCENT DISCREPANCY =          -0.03     PERCENT DISCREPANCY =          -0.01






         TIME SUMMARY AT END OF TIME STEP  314 IN STRESS PERIOD    1
                    SECONDS     MINUTES      HOURS       DAYS        YEARS
                    -----------------------------------------------------------
   TIME STEP LENGTH  86400.      1440.0      24.000      1.0000     2.73785E-03
 STRESS PERIOD TIME 2.71296E+07 4.52160E+05  7536.0      314.00     0.85969    
         TOTAL TIME 2.71296E+07 4.52160E+05  7536.0      314.00     0.85969    
1
 
 SOLVING FOR HEAD 
                                                   Max.-Head-Change                        Max.-Flux-Residual
  Residual-Control   Outer-Iter.   Inner-Iter.     Column Row Layer    Max.-Head-Change    Column Row Layer    Max.-Flux-Residual            L2-New               L2-Old           Solver-Max-Delh
          0                 1           2            55   44     1       0.5328473174E+00      36   86    1       0.3194973803E+05      0.9884419809E+05      0.2690254993E+02      0.5328473174E+00
          0                 2           2            26   78     1       0.5476014226E-01      36   86    1      -0.3195006414E+04      0.9884447579E+04      0.9884419809E+05      0.5476014226E-01

    ------------------------------------------------
       NWT REQUIRED            2 OUTER ITERATIONS 
       AND A TOTAL OF          4 INNER ITERATIONS.
    ------------------------------------------------

 OUTPUT CONTROL FOR STRESS PERIOD    1   TIME STEP  315
    SAVE HEAD FOR ALL LAYERS
    SAVE DRAWDOWN FOR ALL LAYERS
    SAVE BUDGET
    PRINT BUDGET
 UBDSV1 SAVING "         STORAGE" ON UNIT   9 AT TIME STEP315, STRESS PERIOD   1
 UBDSV2 SAVING "   CONSTANT HEAD" ON UNIT   9 AT TIME STEP315, STRESS PERIOD   1
 UBDSV1 SAVING "FLOW RIGHT FACE " ON UNIT   9 AT TIME STEP315, STRESS PERIOD   1
 UBDSV1 SAVING "FLOW FRONT FACE " ON UNIT   9 AT TIME STEP315, STRESS PERIOD   1
 UBDSV4 SAVING "   RIVER LEAKAGE" ON UNIT   9 AT TIME STEP315, STRESS PERIOD   1
 UBDSV3 SAVING "        RECHARGE" ON UNIT   9 AT TIME STEP315, STRESS PERIOD   1

 HEAD WILL BE SAVED ON UNIT   37 AT END OF TIME STEP  315, STRESS PERIOD    1

 DRAWDOWN WILL BE SAVED ON UNIT   38 AT END OF TIME STEP  315, STRESS PERIOD    1
1
  VOLUMETRIC BUDGET FOR ENTIRE MODEL AT END OF TIME STEP  315, STRESS PERIOD   1
  ------------------------------------------------------------------------------

     CUMULATIVE VOLUMES      L**3       RATES FOR THIS TIME STEP      L**3/T
     ------------------                 ------------------------

           IN:                                      IN:
           ---                                      ---
             STORAGE =   265763776.0000               STORAGE =      741441.1875
       CONSTANT HEAD =           0.0000         CONSTANT HEAD =           0.0000
       RIVER LEAKAGE =  1195661056.0000         RIVER LEAKAGE =      454331.2500
            RECHARGE =     6777250.0000              RECHARGE =       84666.7188

            TOTAL IN =  1468201984.0000              TOTAL IN =     1280439.2500

          OUT:                                     OUT:
          ----                                     ----
             STORAGE =  1446207488.0000               STORAGE =     1082952.3750
       CONSTANT HEAD =           0.0000         CONSTANT HEAD =           0.0000
       RIVER LEAKAGE =    22431572.0000         RIVER LEAKAGE =      199046.0312
            RECHARGE =           0.0000              RECHARGE =           0.0000

           TOTAL OUT =  1468639104.0000             TOTAL OUT =     1281998.3750

            IN - OUT =     -437120.0000              IN - OUT =       -1559.1250

 PERCENT DISCREPANCY =          -0.03     PERCENT DISCREPANCY =          -0.12






         TIME SUMMARY AT END OF TIME STEP  315 IN STRESS PERIOD    1
                    SECONDS     MINUTES      HOURS       DAYS        YEARS
                    -----------------------------------------------------------
   TIME STEP LENGTH  86400.      1440.0      24.000      1.0000     2.73785E-03
 STRESS PERIOD TIME 2.72160E+07 4.53600E+05  7560.0      315.00     0.86242    
         TOTAL TIME 2.72160E+07 4.53600E+05  7560.0      315.00     0.86242    
1
 
 SOLVING FOR HEAD 
                                                   Max.-Head-Change                        Max.-Flux-Residual
  Residual-Control   Outer-Iter.   Inner-Iter.     Column Row Layer    Max.-Head-Change    Column Row Layer    Max.-Flux-Residual            L2-New               L2-Old           Solver-Max-Delh
          0                 1           2            55   44     1       0.4769498774E+00      36   86    1       0.3192406737E+05      0.9994316947E+05      0.4943098391E+03      0.4769498774E+00
          0                 2           2            55   46     1       0.1149162218E+00      36   86    1      -0.3192439516E+04      0.9994356989E+04      0.9994316947E+05      0.1149162218E+00

    ------------------------------------------------
       NWT REQUIRED            2 OUTER ITERATIONS 
       AND A TOTAL OF          4 INNER ITERATIONS.
    ------------------------------------------------

 OUTPUT CONTROL FOR STRESS PERIOD    1   TIME STEP  316
    SAVE HEAD FOR ALL LAYERS
    SAVE DRAWDOWN FOR ALL LAYERS
    SAVE BUDGET
    PRINT BUDGET
 UBDSV1 SAVING "         STORAGE" ON UNIT   9 AT TIME STEP316, STRESS PERIOD   1
 UBDSV2 SAVING "   CONSTANT HEAD" ON UNIT   9 AT TIME STEP316, STRESS PERIOD   1
 UBDSV1 SAVING "FLOW RIGHT FACE " ON UNIT   9 AT TIME STEP316, STRESS PERIOD   1
 UBDSV1 SAVING "FLOW FRONT FACE " ON UNIT   9 AT TIME STEP316, STRESS PERIOD   1
 UBDSV4 SAVING "   RIVER LEAKAGE" ON UNIT   9 AT TIME STEP316, STRESS PERIOD   1
 UBDSV3 SAVING "        RECHARGE" ON UNIT   9 AT TIME STEP316, STRESS PERIOD   1

 HEAD WILL BE SAVED ON UNIT   37 AT END OF TIME STEP  316, STRESS PERIOD    1

 DRAWDOWN WILL BE SAVED ON UNIT   38 AT END OF TIME STEP  316, STRESS PERIOD    1
1
  VOLUMETRIC BUDGET FOR ENTIRE MODEL AT END OF TIME STEP  316, STRESS PERIOD   1
  ------------------------------------------------------------------------------

     CUMULATIVE VOLUMES      L**3       RATES FOR THIS TIME STEP      L**3/T
     ------------------                 ------------------------

           IN:                                      IN:
           ---                                      ---
             STORAGE =   266515024.0000               STORAGE =      751252.1875
       CONSTANT HEAD =           0.0000         CONSTANT HEAD =           0.0000
       RIVER LEAKAGE =  1196095104.0000         RIVER LEAKAGE =      434095.5625
            RECHARGE =     6828011.5000              RECHARGE =       50761.5625

            TOTAL IN =  1469438208.0000              TOTAL IN =     1236109.2500

          OUT:                                     OUT:
          ----                                     ----
             STORAGE =  1447247744.0000               STORAGE =     1040231.1875
       CONSTANT HEAD =           0.0000         CONSTANT HEAD =           0.0000
       RIVER LEAKAGE =    22627780.0000         RIVER LEAKAGE =      196207.8750
            RECHARGE =           0.0000              RECHARGE =           0.0000

           TOTAL OUT =  1469875584.0000             TOTAL OUT =     1236439.0000

            IN - OUT =     -437376.0000              IN - OUT =        -329.7500

 PERCENT DISCREPANCY =          -0.03     PERCENT DISCREPANCY =          -0.03






         TIME SUMMARY AT END OF TIME STEP  316 IN STRESS PERIOD    1
                    SECONDS     MINUTES      HOURS       DAYS        YEARS
                    -----------------------------------------------------------
   TIME STEP LENGTH  86400.      1440.0      24.000      1.0000     2.73785E-03
 STRESS PERIOD TIME 2.73024E+07 4.55040E+05  7584.0      316.00     0.86516    
         TOTAL TIME 2.73024E+07 4.55040E+05  7584.0      316.00     0.86516    
1
 
 SOLVING FOR HEAD 
                                                   Max.-Head-Change                        Max.-Flux-Residual
  Residual-Control   Outer-Iter.   Inner-Iter.     Column Row Layer    Max.-Head-Change    Column Row Layer    Max.-Flux-Residual            L2-New               L2-Old           Solver-Max-Delh
          0                 1           2            55   44     1       0.4260806175E+00      36   86    1       0.3189831814E+05      0.9786706176E+05      0.4998195154E+03      0.4260806175E+00
          0                 2           2            29  111     1      -0.1198571104E+00      36   86    1      -0.3189864821E+04      0.9786147907E+04      0.9786706176E+05     -0.1198571104E+00
          1                 2           0            29  111     1      -0.8389997583E-01      29  111    1       0.2106005415E+05      0.2106573592E+05      0.9786147907E+04     -0.1198571104E+00
          0                 3           2            26   78     1       0.6473681784E-01      36   86    1      -0.1068604815E+04      0.3278324187E+04      0.2106573592E+05      0.6473681784E-01
          1                 3           0            26   78     1       0.4531577171E-01      29  111    1       0.1266304380E+05      0.1266410739E+05      0.3278324187E+04      0.6473681784E-01
          2                 3           0            26   78     1       0.3172103966E-01      29  111    1       0.4386032899E+04      0.4521431765E+04      0.1266410739E+05      0.6473681784E-01
          0                 4           2            26   78     1       0.6472572529E-01      36   86    1      -0.5711640475E+03      0.1752262140E+04      0.4521431765E+04      0.6472572529E-01
          1                 4           0            26   78     1       0.4530800693E-01      29  111    1       0.1131113173E+05      0.1131147508E+05      0.1752262140E+04      0.6472572529E-01
          2                 4           0            26   78     1       0.3171560431E-01      29  111    1       0.7495429906E+04      0.7518379677E+04      0.1131147508E+05      0.6472572529E-01
          3                 4           0            26   78     1       0.2220092264E-01      29  111    1       0.4824438243E+04      0.4914503989E+04      0.7518379677E+04      0.6472572529E-01
                                                   Max.-Head-Change                        Max.-Flux-Residual
  Residual-Control   Outer-Iter.   Inner-Iter.     Column Row Layer    Max.-Head-Change    Column Row Layer    Max.-Flux-Residual            L2-New               L2-Old           Solver-Max-Delh
          4                 4           0            26   78     1       0.1554064558E-01      29  111    1       0.2954743898E+04      0.3182123144E+04      0.4914503989E+04      0.6472572529E-01
          5                 4           0            26   78     1       0.1087845172E-01      29  111    1       0.1645957775E+04      0.2130402902E+04      0.3182123144E+04      0.6472572529E-01
          0                 5           2            26   78     1       0.6472192045E-01      29  111    1       0.7298074535E+03      0.1643414090E+04      0.2130402902E+04      0.6472192045E-01

    ------------------------------------------------
       NWT REQUIRED            5 OUTER ITERATIONS 
       AND A TOTAL OF         10 INNER ITERATIONS.
    ------------------------------------------------

 OUTPUT CONTROL FOR STRESS PERIOD    1   TIME STEP  317
    SAVE HEAD FOR ALL LAYERS
    SAVE DRAWDOWN FOR ALL LAYERS
    SAVE BUDGET
    PRINT BUDGET
 UBDSV1 SAVING "         STORAGE" ON UNIT   9 AT TIME STEP317, STRESS PERIOD   1
 UBDSV2 SAVING "   CONSTANT HEAD" ON UNIT   9 AT TIME STEP317, STRESS PERIOD   1
 UBDSV1 SAVING "FLOW RIGHT FACE " ON UNIT   9 AT TIME STEP317, STRESS PERIOD   1
 UBDSV1 SAVING "FLOW FRONT FACE " ON UNIT   9 AT TIME STEP317, STRESS PERIOD   1
 UBDSV4 SAVING "   RIVER LEAKAGE" ON UNIT   9 AT TIME STEP317, STRESS PERIOD   1
 UBDSV3 SAVING "        RECHARGE" ON UNIT   9 AT TIME STEP317, STRESS PERIOD   1

 HEAD WILL BE SAVED ON UNIT   37 AT END OF TIME STEP  317, STRESS PERIOD    1

 DRAWDOWN WILL BE SAVED ON UNIT   38 AT END OF TIME STEP  317, STRESS PERIOD    1
1
  VOLUMETRIC BUDGET FOR ENTIRE MODEL AT END OF TIME STEP  317, STRESS PERIOD   1
  ------------------------------------------------------------------------------

     CUMULATIVE VOLUMES      L**3       RATES FOR THIS TIME STEP      L**3/T
     ------------------                 ------------------------

           IN:                                      IN:
           ---                                      ---
             STORAGE =   267270160.0000               STORAGE =      755136.3125
       CONSTANT HEAD =           0.0000         CONSTANT HEAD =           0.0000
       RIVER LEAKAGE =  1196499328.0000         RIVER LEAKAGE =      404177.2500
            RECHARGE =     6857428.0000              RECHARGE =       29416.7090

            TOTAL IN =  1470626944.0000              TOTAL IN =     1188730.2500

          OUT:                                     OUT:
          ----                                     ----
             STORAGE =  1448240512.0000               STORAGE =      992753.8750
       CONSTANT HEAD =           0.0000         CONSTANT HEAD =           0.0000
       RIVER LEAKAGE =    22823710.0000         RIVER LEAKAGE =      195929.2500
            RECHARGE =           0.0000              RECHARGE =           0.0000

           TOTAL OUT =  1471064192.0000             TOTAL OUT =     1188683.1250

            IN - OUT =     -437248.0000              IN - OUT =          47.1250

 PERCENT DISCREPANCY =          -0.03     PERCENT DISCREPANCY =           0.00






         TIME SUMMARY AT END OF TIME STEP  317 IN STRESS PERIOD    1
                    SECONDS     MINUTES      HOURS       DAYS        YEARS
                    -----------------------------------------------------------
   TIME STEP LENGTH  86400.      1440.0      24.000      1.0000     2.73785E-03
 STRESS PERIOD TIME 2.73888E+07 4.56480E+05  7608.0      317.00     0.86790    
         TOTAL TIME 2.73888E+07 4.56480E+05  7608.0      317.00     0.86790    
1
 
 SOLVING FOR HEAD 
                                                   Max.-Head-Change                        Max.-Flux-Residual
  Residual-Control   Outer-Iter.   Inner-Iter.     Column Row Layer    Max.-Head-Change    Column Row Layer    Max.-Flux-Residual            L2-New               L2-Old           Solver-Max-Delh
          0                 1           2            55   44     1       0.3795257656E+00      36   86    1       0.3187254073E+05      0.9527111824E+05      0.8412429630E+02      0.3795257656E+00
          0                 2           2            26   78     1       0.6043297813E-01      36   86    1      -0.3187287077E+04      0.9528686016E+04      0.9527111824E+05      0.6043297813E-01
          0                 3           2            26   78     1       0.6041162241E-01      29  111    1      -0.1604329757E+03      0.5027447762E+03      0.9528686016E+04      0.6041162241E-01

    ------------------------------------------------
       NWT REQUIRED            3 OUTER ITERATIONS 
       AND A TOTAL OF          6 INNER ITERATIONS.
    ------------------------------------------------

 OUTPUT CONTROL FOR STRESS PERIOD    1   TIME STEP  318
    SAVE HEAD FOR ALL LAYERS
    SAVE DRAWDOWN FOR ALL LAYERS
    SAVE BUDGET
    PRINT BUDGET
 UBDSV1 SAVING "         STORAGE" ON UNIT   9 AT TIME STEP318, STRESS PERIOD   1
 UBDSV2 SAVING "   CONSTANT HEAD" ON UNIT   9 AT TIME STEP318, STRESS PERIOD   1
 UBDSV1 SAVING "FLOW RIGHT FACE " ON UNIT   9 AT TIME STEP318, STRESS PERIOD   1
 UBDSV1 SAVING "FLOW FRONT FACE " ON UNIT   9 AT TIME STEP318, STRESS PERIOD   1
 UBDSV4 SAVING "   RIVER LEAKAGE" ON UNIT   9 AT TIME STEP318, STRESS PERIOD   1
 UBDSV3 SAVING "        RECHARGE" ON UNIT   9 AT TIME STEP318, STRESS PERIOD   1

 HEAD WILL BE SAVED ON UNIT   37 AT END OF TIME STEP  318, STRESS PERIOD    1

 DRAWDOWN WILL BE SAVED ON UNIT   38 AT END OF TIME STEP  318, STRESS PERIOD    1
1
  VOLUMETRIC BUDGET FOR ENTIRE MODEL AT END OF TIME STEP  318, STRESS PERIOD   1
  ------------------------------------------------------------------------------

     CUMULATIVE VOLUMES      L**3       RATES FOR THIS TIME STEP      L**3/T
     ------------------                 ------------------------

           IN:                                      IN:
           ---                                      ---
             STORAGE =   268027360.0000               STORAGE =      757200.5000
       CONSTANT HEAD =           0.0000         CONSTANT HEAD =           0.0000
       RIVER LEAKAGE =  1196896000.0000         RIVER LEAKAGE =      396665.5938
            RECHARGE =     6875031.5000              RECHARGE =       17603.3457

            TOTAL IN =  1471798400.0000              TOTAL IN =     1171469.5000

          OUT:                                     OUT:
          ----                                     ----
             STORAGE =  1449216768.0000               STORAGE =      976268.6875
       CONSTANT HEAD =           0.0000         CONSTANT HEAD =           0.0000
       RIVER LEAKAGE =    23019064.0000         RIVER LEAKAGE =      195353.3125
            RECHARGE =           0.0000              RECHARGE =           0.0000

           TOTAL OUT =  1472235776.0000             TOTAL OUT =     1171622.0000

            IN - OUT =     -437376.0000              IN - OUT =        -152.5000

 PERCENT DISCREPANCY =          -0.03     PERCENT DISCREPANCY =          -0.01






         TIME SUMMARY AT END OF TIME STEP  318 IN STRESS PERIOD    1
                    SECONDS     MINUTES      HOURS       DAYS        YEARS
                    -----------------------------------------------------------
   TIME STEP LENGTH  86400.      1440.0      24.000      1.0000     2.73785E-03
 STRESS PERIOD TIME 2.74752E+07 4.57920E+05  7632.0      318.00     0.87064    
         TOTAL TIME 2.74752E+07 4.57920E+05  7632.0      318.00     0.87064    
1
 
 SOLVING FOR HEAD 
                                                   Max.-Head-Change                        Max.-Flux-Residual
  Residual-Control   Outer-Iter.   Inner-Iter.     Column Row Layer    Max.-Head-Change    Column Row Layer    Max.-Flux-Residual            L2-New               L2-Old           Solver-Max-Delh
          0                 1           2            55   44     1       0.3374391424E+00      36   86    1       0.3184674888E+05      0.9503674866E+05      0.1506742753E+03      0.3374391424E+00
          0                 2           2            26   78     1       0.5438629164E-01      36   86    1      -0.3184707877E+04      0.9503681178E+04      0.9503674866E+05      0.5438629164E-01

    ------------------------------------------------
       NWT REQUIRED            2 OUTER ITERATIONS 
       AND A TOTAL OF          4 INNER ITERATIONS.
    ------------------------------------------------

 OUTPUT CONTROL FOR STRESS PERIOD    1   TIME STEP  319
    SAVE HEAD FOR ALL LAYERS
    SAVE DRAWDOWN FOR ALL LAYERS
    SAVE BUDGET
    PRINT BUDGET
 UBDSV1 SAVING "         STORAGE" ON UNIT   9 AT TIME STEP319, STRESS PERIOD   1
 UBDSV2 SAVING "   CONSTANT HEAD" ON UNIT   9 AT TIME STEP319, STRESS PERIOD   1
 UBDSV1 SAVING "FLOW RIGHT FACE " ON UNIT   9 AT TIME STEP319, STRESS PERIOD   1
 UBDSV1 SAVING "FLOW FRONT FACE " ON UNIT   9 AT TIME STEP319, STRESS PERIOD   1
 UBDSV4 SAVING "   RIVER LEAKAGE" ON UNIT   9 AT TIME STEP319, STRESS PERIOD   1
 UBDSV3 SAVING "        RECHARGE" ON UNIT   9 AT TIME STEP319, STRESS PERIOD   1

 HEAD WILL BE SAVED ON UNIT   37 AT END OF TIME STEP  319, STRESS PERIOD    1

 DRAWDOWN WILL BE SAVED ON UNIT   38 AT END OF TIME STEP  319, STRESS PERIOD    1
1
  VOLUMETRIC BUDGET FOR ENTIRE MODEL AT END OF TIME STEP  319, STRESS PERIOD   1
  ------------------------------------------------------------------------------

     CUMULATIVE VOLUMES      L**3       RATES FOR THIS TIME STEP      L**3/T
     ------------------                 ------------------------

           IN:                                      IN:
           ---                                      ---
             STORAGE =   268789632.0000               STORAGE =      762256.6875
       CONSTANT HEAD =           0.0000         CONSTANT HEAD =           0.0000
       RIVER LEAKAGE =  1197288576.0000         RIVER LEAKAGE =      392606.9688
            RECHARGE =     6886015.0000              RECHARGE =       10983.5371

            TOTAL IN =  1472964224.0000              TOTAL IN =     1165847.2500

          OUT:                                     OUT:
          ----                                     ----
             STORAGE =  1450188544.0000               STORAGE =      971806.8750
       CONSTANT HEAD =           0.0000         CONSTANT HEAD =           0.0000
       RIVER LEAKAGE =    23213992.0000         RIVER LEAKAGE =      194927.3281
            RECHARGE =           0.0000              RECHARGE =           0.0000

           TOTAL OUT =  1473402496.0000             TOTAL OUT =     1166734.2500

            IN - OUT =     -438272.0000              IN - OUT =        -887.0000

 PERCENT DISCREPANCY =          -0.03     PERCENT DISCREPANCY =          -0.08






         TIME SUMMARY AT END OF TIME STEP  319 IN STRESS PERIOD    1
                    SECONDS     MINUTES      HOURS       DAYS        YEARS
                    -----------------------------------------------------------
   TIME STEP LENGTH  86400.      1440.0      24.000      1.0000     2.73785E-03
 STRESS PERIOD TIME 2.75616E+07 4.59360E+05  7656.0      319.00     0.87337    
         TOTAL TIME 2.75616E+07 4.59360E+05  7656.0      319.00     0.87337    
1
 
 SOLVING FOR HEAD 
                                                   Max.-Head-Change                        Max.-Flux-Residual
  Residual-Control   Outer-Iter.   Inner-Iter.     Column Row Layer    Max.-Head-Change    Column Row Layer    Max.-Flux-Residual            L2-New               L2-Old           Solver-Max-Delh
          0                 1           2            55   44     1       0.2990715622E+00      36   86    1       0.3182080560E+05      0.9501487095E+05      0.4752794207E+03      0.2990715622E+00
          0                 2           2            26   78     1       0.4962848499E-01      36   86    1      -0.3182113480E+04      0.9501513693E+04      0.9501487095E+05      0.4962848499E-01

    ------------------------------------------------
       NWT REQUIRED            2 OUTER ITERATIONS 
       AND A TOTAL OF          4 INNER ITERATIONS.
    ------------------------------------------------

 OUTPUT CONTROL FOR STRESS PERIOD    1   TIME STEP  320
    SAVE HEAD FOR ALL LAYERS
    SAVE DRAWDOWN FOR ALL LAYERS
    SAVE BUDGET
    PRINT BUDGET
 UBDSV1 SAVING "         STORAGE" ON UNIT   9 AT TIME STEP320, STRESS PERIOD   1
 UBDSV2 SAVING "   CONSTANT HEAD" ON UNIT   9 AT TIME STEP320, STRESS PERIOD   1
 UBDSV1 SAVING "FLOW RIGHT FACE " ON UNIT   9 AT TIME STEP320, STRESS PERIOD   1
 UBDSV1 SAVING "FLOW FRONT FACE " ON UNIT   9 AT TIME STEP320, STRESS PERIOD   1
 UBDSV4 SAVING "   RIVER LEAKAGE" ON UNIT   9 AT TIME STEP320, STRESS PERIOD   1
 UBDSV3 SAVING "        RECHARGE" ON UNIT   9 AT TIME STEP320, STRESS PERIOD   1

 HEAD WILL BE SAVED ON UNIT   37 AT END OF TIME STEP  320, STRESS PERIOD    1

 DRAWDOWN WILL BE SAVED ON UNIT   38 AT END OF TIME STEP  320, STRESS PERIOD    1
1
  VOLUMETRIC BUDGET FOR ENTIRE MODEL AT END OF TIME STEP  320, STRESS PERIOD   1
  ------------------------------------------------------------------------------

     CUMULATIVE VOLUMES      L**3       RATES FOR THIS TIME STEP      L**3/T
     ------------------                 ------------------------

           IN:                                      IN:
           ---                                      ---
             STORAGE =   269551872.0000               STORAGE =      762255.9375
       CONSTANT HEAD =           0.0000         CONSTANT HEAD =           0.0000
       RIVER LEAKAGE =  1197682048.0000         RIVER LEAKAGE =      393444.9375
            RECHARGE =     6893243.0000              RECHARGE =        7228.1265

            TOTAL IN =  1474127104.0000              TOTAL IN =     1162929.0000

          OUT:                                     OUT:
          ----                                     ----
             STORAGE =  1451157760.0000               STORAGE =      969202.6250
       CONSTANT HEAD =           0.0000         CONSTANT HEAD =           0.0000
       RIVER LEAKAGE =    23408794.0000         RIVER LEAKAGE =      194802.4531
            RECHARGE =           0.0000              RECHARGE =           0.0000

           TOTAL OUT =  1474566528.0000             TOTAL OUT =     1164005.1250

            IN - OUT =     -439424.0000              IN - OUT =       -1076.1250

 PERCENT DISCREPANCY =          -0.03     PERCENT DISCREPANCY =          -0.09






         TIME SUMMARY AT END OF TIME STEP  320 IN STRESS PERIOD    1
                    SECONDS     MINUTES      HOURS       DAYS        YEARS
                    -----------------------------------------------------------
   TIME STEP LENGTH  86400.      1440.0      24.000      1.0000     2.73785E-03
 STRESS PERIOD TIME 2.76480E+07 4.60800E+05  7680.0      320.00     0.87611    
         TOTAL TIME 2.76480E+07 4.60800E+05  7680.0      320.00     0.87611    
1
 
 SOLVING FOR HEAD 
                                                   Max.-Head-Change                        Max.-Flux-Residual
  Residual-Control   Outer-Iter.   Inner-Iter.     Column Row Layer    Max.-Head-Change    Column Row Layer    Max.-Flux-Residual            L2-New               L2-Old           Solver-Max-Delh
          0                 1           2            59   48     1       0.2775103075E+00      36   86    1       0.3179485883E+05      0.9485543282E+05      0.4751653115E+03      0.2775103075E+00
          0                 2           2            52   51     1       0.8861820742E-01      36   86    1      -0.3179518787E+04      0.9485578866E+04      0.9485543282E+05      0.8861820742E-01

    ------------------------------------------------
       NWT REQUIRED            2 OUTER ITERATIONS 
       AND A TOTAL OF          4 INNER ITERATIONS.
    ------------------------------------------------

 OUTPUT CONTROL FOR STRESS PERIOD    1   TIME STEP  321
    SAVE HEAD FOR ALL LAYERS
    SAVE DRAWDOWN FOR ALL LAYERS
    SAVE BUDGET
    PRINT BUDGET
 UBDSV1 SAVING "         STORAGE" ON UNIT   9 AT TIME STEP321, STRESS PERIOD   1
 UBDSV2 SAVING "   CONSTANT HEAD" ON UNIT   9 AT TIME STEP321, STRESS PERIOD   1
 UBDSV1 SAVING "FLOW RIGHT FACE " ON UNIT   9 AT TIME STEP321, STRESS PERIOD   1
 UBDSV1 SAVING "FLOW FRONT FACE " ON UNIT   9 AT TIME STEP321, STRESS PERIOD   1
 UBDSV4 SAVING "   RIVER LEAKAGE" ON UNIT   9 AT TIME STEP321, STRESS PERIOD   1
 UBDSV3 SAVING "        RECHARGE" ON UNIT   9 AT TIME STEP321, STRESS PERIOD   1

 HEAD WILL BE SAVED ON UNIT   37 AT END OF TIME STEP  321, STRESS PERIOD    1

 DRAWDOWN WILL BE SAVED ON UNIT   38 AT END OF TIME STEP  321, STRESS PERIOD    1
1
  VOLUMETRIC BUDGET FOR ENTIRE MODEL AT END OF TIME STEP  321, STRESS PERIOD   1
  ------------------------------------------------------------------------------

     CUMULATIVE VOLUMES      L**3       RATES FOR THIS TIME STEP      L**3/T
     ------------------                 ------------------------

           IN:                                      IN:
           ---                                      ---
             STORAGE =   270314656.0000               STORAGE =      762798.1250
       CONSTANT HEAD =           0.0000         CONSTANT HEAD =           0.0000
       RIVER LEAKAGE =  1198071296.0000         RIVER LEAKAGE =      389259.3438
            RECHARGE =     6898346.0000              RECHARGE =        5103.1875

            TOTAL IN =  1475284224.0000              TOTAL IN =     1157160.6250

          OUT:                                     OUT:
          ----                                     ----
             STORAGE =  1452121216.0000               STORAGE =      963448.1250
       CONSTANT HEAD =           0.0000         CONSTANT HEAD =           0.0000
       RIVER LEAKAGE =    23603290.0000         RIVER LEAKAGE =      194495.1875
            RECHARGE =           0.0000              RECHARGE =           0.0000

           TOTAL OUT =  1475724544.0000             TOTAL OUT =     1157943.2500

            IN - OUT =     -440320.0000              IN - OUT =        -782.6250

 PERCENT DISCREPANCY =          -0.03     PERCENT DISCREPANCY =          -0.07






         TIME SUMMARY AT END OF TIME STEP  321 IN STRESS PERIOD    1
                    SECONDS     MINUTES      HOURS       DAYS        YEARS
                    -----------------------------------------------------------
   TIME STEP LENGTH  86400.      1440.0      24.000      1.0000     2.73785E-03
 STRESS PERIOD TIME 2.77344E+07 4.62240E+05  7704.0      321.00     0.87885    
         TOTAL TIME 2.77344E+07 4.62240E+05  7704.0      321.00     0.87885    
1
 
 SOLVING FOR HEAD 
                                                   Max.-Head-Change                        Max.-Flux-Residual
  Residual-Control   Outer-Iter.   Inner-Iter.     Column Row Layer    Max.-Head-Change    Column Row Layer    Max.-Flux-Residual            L2-New               L2-Old           Solver-Max-Delh
          0                 1           2            59   48     1       0.2764473539E+00      36   86    1       0.3176886895E+05      0.9468531055E+05      0.4743669387E+03      0.2764473539E+00
          0                 2           2            26   78     1       0.4528712367E-01      36   86    1      -0.3176919748E+04      0.9468557479E+04      0.9468531055E+05      0.4528712367E-01

    ------------------------------------------------
       NWT REQUIRED            2 OUTER ITERATIONS 
       AND A TOTAL OF          4 INNER ITERATIONS.
    ------------------------------------------------

 OUTPUT CONTROL FOR STRESS PERIOD    1   TIME STEP  322
    SAVE HEAD FOR ALL LAYERS
    SAVE DRAWDOWN FOR ALL LAYERS
    SAVE BUDGET
    PRINT BUDGET
 UBDSV1 SAVING "         STORAGE" ON UNIT   9 AT TIME STEP322, STRESS PERIOD   1
 UBDSV2 SAVING "   CONSTANT HEAD" ON UNIT   9 AT TIME STEP322, STRESS PERIOD   1
 UBDSV1 SAVING "FLOW RIGHT FACE " ON UNIT   9 AT TIME STEP322, STRESS PERIOD   1
 UBDSV1 SAVING "FLOW FRONT FACE " ON UNIT   9 AT TIME STEP322, STRESS PERIOD   1
 UBDSV4 SAVING "   RIVER LEAKAGE" ON UNIT   9 AT TIME STEP322, STRESS PERIOD   1
 UBDSV3 SAVING "        RECHARGE" ON UNIT   9 AT TIME STEP322, STRESS PERIOD   1

 HEAD WILL BE SAVED ON UNIT   37 AT END OF TIME STEP  322, STRESS PERIOD    1

 DRAWDOWN WILL BE SAVED ON UNIT   38 AT END OF TIME STEP  322, STRESS PERIOD    1
1
  VOLUMETRIC BUDGET FOR ENTIRE MODEL AT END OF TIME STEP  322, STRESS PERIOD   1
  ------------------------------------------------------------------------------

     CUMULATIVE VOLUMES      L**3       RATES FOR THIS TIME STEP      L**3/T
     ------------------                 ------------------------

           IN:                                      IN:
           ---                                      ---
             STORAGE =   271077344.0000               STORAGE =      762693.2500
       CONSTANT HEAD =           0.0000         CONSTANT HEAD =           0.0000
       RIVER LEAKAGE =  1198459776.0000         RIVER LEAKAGE =      388420.0938
            RECHARGE =     6902241.0000              RECHARGE =        3894.7769

            TOTAL IN =  1476439424.0000              TOTAL IN =     1155008.1250

          OUT:                                     OUT:
          ----                                     ----
             STORAGE =  1453082624.0000               STORAGE =      961448.3125
       CONSTANT HEAD =           0.0000         CONSTANT HEAD =           0.0000
       RIVER LEAKAGE =    23797768.0000         RIVER LEAKAGE =      194477.6562
            RECHARGE =           0.0000              RECHARGE =           0.0000

           TOTAL OUT =  1476880384.0000             TOTAL OUT =     1155926.0000

            IN - OUT =     -440960.0000              IN - OUT =        -917.8750

 PERCENT DISCREPANCY =          -0.03     PERCENT DISCREPANCY =          -0.08






         TIME SUMMARY AT END OF TIME STEP  322 IN STRESS PERIOD    1
                    SECONDS     MINUTES      HOURS       DAYS        YEARS
                    -----------------------------------------------------------
   TIME STEP LENGTH  86400.      1440.0      24.000      1.0000     2.73785E-03
 STRESS PERIOD TIME 2.78208E+07 4.63680E+05  7728.0      322.00     0.88159    
         TOTAL TIME 2.78208E+07 4.63680E+05  7728.0      322.00     0.88159    
1
 
 SOLVING FOR HEAD 
                                                   Max.-Head-Change                        Max.-Flux-Residual
  Residual-Control   Outer-Iter.   Inner-Iter.     Column Row Layer    Max.-Head-Change    Column Row Layer    Max.-Flux-Residual            L2-New               L2-Old           Solver-Max-Delh
          0                 1           2            59   48     1       0.2753830560E+00      36   86    1       0.3174288764E+05      0.9461693596E+05      0.4735129934E+03      0.2753830560E+00
          0                 2           2            26   78     1       0.4460475617E-01      36   86    1      -0.3174321563E+04      0.9461719933E+04      0.9461693596E+05      0.4460475617E-01

    ------------------------------------------------
       NWT REQUIRED            2 OUTER ITERATIONS 
       AND A TOTAL OF          4 INNER ITERATIONS.
    ------------------------------------------------

 OUTPUT CONTROL FOR STRESS PERIOD    1   TIME STEP  323
    SAVE HEAD FOR ALL LAYERS
    SAVE DRAWDOWN FOR ALL LAYERS
    SAVE BUDGET
    PRINT BUDGET
 UBDSV1 SAVING "         STORAGE" ON UNIT   9 AT TIME STEP323, STRESS PERIOD   1
 UBDSV2 SAVING "   CONSTANT HEAD" ON UNIT   9 AT TIME STEP323, STRESS PERIOD   1
 UBDSV1 SAVING "FLOW RIGHT FACE " ON UNIT   9 AT TIME STEP323, STRESS PERIOD   1
 UBDSV1 SAVING "FLOW FRONT FACE " ON UNIT   9 AT TIME STEP323, STRESS PERIOD   1
 UBDSV4 SAVING "   RIVER LEAKAGE" ON UNIT   9 AT TIME STEP323, STRESS PERIOD   1
 UBDSV3 SAVING "        RECHARGE" ON UNIT   9 AT TIME STEP323, STRESS PERIOD   1

 HEAD WILL BE SAVED ON UNIT   37 AT END OF TIME STEP  323, STRESS PERIOD    1

 DRAWDOWN WILL BE SAVED ON UNIT   38 AT END OF TIME STEP  323, STRESS PERIOD    1
1
  VOLUMETRIC BUDGET FOR ENTIRE MODEL AT END OF TIME STEP  323, STRESS PERIOD   1
  ------------------------------------------------------------------------------

     CUMULATIVE VOLUMES      L**3       RATES FOR THIS TIME STEP      L**3/T
     ------------------                 ------------------------

           IN:                                      IN:
           ---                                      ---
             STORAGE =   271839872.0000               STORAGE =      762516.8125
       CONSTANT HEAD =           0.0000         CONSTANT HEAD =           0.0000
       RIVER LEAKAGE =  1198847744.0000         RIVER LEAKAGE =      387966.7500
            RECHARGE =     6905426.5000              RECHARGE =        3185.2991

            TOTAL IN =  1477593088.0000              TOTAL IN =     1153668.8750

          OUT:                                     OUT:
          ----                                     ----
             STORAGE =  1454042752.0000               STORAGE =      960180.8125
       CONSTANT HEAD =           0.0000         CONSTANT HEAD =           0.0000
       RIVER LEAKAGE =    23992184.0000         RIVER LEAKAGE =      194416.2500
            RECHARGE =           0.0000              RECHARGE =           0.0000

           TOTAL OUT =  1478034944.0000             TOTAL OUT =     1154597.0000

            IN - OUT =     -441856.0000              IN - OUT =        -928.1250

 PERCENT DISCREPANCY =          -0.03     PERCENT DISCREPANCY =          -0.08






         TIME SUMMARY AT END OF TIME STEP  323 IN STRESS PERIOD    1
                    SECONDS     MINUTES      HOURS       DAYS        YEARS
                    -----------------------------------------------------------
   TIME STEP LENGTH  86400.      1440.0      24.000      1.0000     2.73785E-03
 STRESS PERIOD TIME 2.79072E+07 4.65120E+05  7752.0      323.00     0.88433    
         TOTAL TIME 2.79072E+07 4.65120E+05  7752.0      323.00     0.88433    
1
 
 SOLVING FOR HEAD 
                                                   Max.-Head-Change                        Max.-Flux-Residual
  Residual-Control   Outer-Iter.   Inner-Iter.     Column Row Layer    Max.-Head-Change    Column Row Layer    Max.-Flux-Residual            L2-New               L2-Old           Solver-Max-Delh
          0                 1           2            59   48     1       0.2740513511E+00      36   86    1       0.3171687868E+05      0.9456230163E+05      0.4731703650E+03      0.2740513511E+00
          0                 2           2            26   78     1       0.4429929989E-01      36   86    1      -0.3171720606E+04      0.9456256447E+04      0.9456230163E+05      0.4429929989E-01

    ------------------------------------------------
       NWT REQUIRED            2 OUTER ITERATIONS 
       AND A TOTAL OF          4 INNER ITERATIONS.
    ------------------------------------------------

 OUTPUT CONTROL FOR STRESS PERIOD    1   TIME STEP  324
    SAVE HEAD FOR ALL LAYERS
    SAVE DRAWDOWN FOR ALL LAYERS
    SAVE BUDGET
    PRINT BUDGET
 UBDSV1 SAVING "         STORAGE" ON UNIT   9 AT TIME STEP324, STRESS PERIOD   1
 UBDSV2 SAVING "   CONSTANT HEAD" ON UNIT   9 AT TIME STEP324, STRESS PERIOD   1
 UBDSV1 SAVING "FLOW RIGHT FACE " ON UNIT   9 AT TIME STEP324, STRESS PERIOD   1
 UBDSV1 SAVING "FLOW FRONT FACE " ON UNIT   9 AT TIME STEP324, STRESS PERIOD   1
 UBDSV4 SAVING "   RIVER LEAKAGE" ON UNIT   9 AT TIME STEP324, STRESS PERIOD   1
 UBDSV3 SAVING "        RECHARGE" ON UNIT   9 AT TIME STEP324, STRESS PERIOD   1

 HEAD WILL BE SAVED ON UNIT   37 AT END OF TIME STEP  324, STRESS PERIOD    1

 DRAWDOWN WILL BE SAVED ON UNIT   38 AT END OF TIME STEP  324, STRESS PERIOD    1
1
  VOLUMETRIC BUDGET FOR ENTIRE MODEL AT END OF TIME STEP  324, STRESS PERIOD   1
  ------------------------------------------------------------------------------

     CUMULATIVE VOLUMES      L**3       RATES FOR THIS TIME STEP      L**3/T
     ------------------                 ------------------------

           IN:                                      IN:
           ---                                      ---
             STORAGE =   272602080.0000               STORAGE =      762194.6250
       CONSTANT HEAD =           0.0000         CONSTANT HEAD =           0.0000
       RIVER LEAKAGE =  1199235712.0000         RIVER LEAKAGE =      387927.8750
            RECHARGE =     6908162.5000              RECHARGE =        2735.8669

            TOTAL IN =  1478745984.0000              TOTAL IN =     1152858.3750

          OUT:                                     OUT:
          ----                                     ----
             STORAGE =  1455002240.0000               STORAGE =      959424.6250
       CONSTANT HEAD =           0.0000         CONSTANT HEAD =           0.0000
       RIVER LEAKAGE =    24186554.0000         RIVER LEAKAGE =      194370.3594
            RECHARGE =           0.0000              RECHARGE =           0.0000

           TOTAL OUT =  1479188736.0000             TOTAL OUT =     1153795.0000

            IN - OUT =     -442752.0000              IN - OUT =        -936.6250

 PERCENT DISCREPANCY =          -0.03     PERCENT DISCREPANCY =          -0.08






         TIME SUMMARY AT END OF TIME STEP  324 IN STRESS PERIOD    1
                    SECONDS     MINUTES      HOURS       DAYS        YEARS
                    -----------------------------------------------------------
   TIME STEP LENGTH  86400.      1440.0      24.000      1.0000     2.73785E-03
 STRESS PERIOD TIME 2.79936E+07 4.66560E+05  7776.0      324.00     0.88706    
         TOTAL TIME 2.79936E+07 4.66560E+05  7776.0      324.00     0.88706    
1
 
 SOLVING FOR HEAD 
                                                   Max.-Head-Change                        Max.-Flux-Residual
  Residual-Control   Outer-Iter.   Inner-Iter.     Column Row Layer    Max.-Head-Change    Column Row Layer    Max.-Flux-Residual            L2-New               L2-Old           Solver-Max-Delh
          0                 1           2            59   48     1       0.2729883937E+00      36   86    1       0.3169084491E+05      0.9450591039E+05      0.4728967942E+03      0.2729883937E+00
          0                 2           2            26   78     1       0.4415214278E-01      36   86    1      -0.3169117167E+04      0.9450617299E+04      0.9450591039E+05      0.4415214278E-01

    ------------------------------------------------
       NWT REQUIRED            2 OUTER ITERATIONS 
       AND A TOTAL OF          4 INNER ITERATIONS.
    ------------------------------------------------

 OUTPUT CONTROL FOR STRESS PERIOD    1   TIME STEP  325
    SAVE HEAD FOR ALL LAYERS
    SAVE DRAWDOWN FOR ALL LAYERS
    SAVE BUDGET
    PRINT BUDGET
 UBDSV1 SAVING "         STORAGE" ON UNIT   9 AT TIME STEP325, STRESS PERIOD   1
 UBDSV2 SAVING "   CONSTANT HEAD" ON UNIT   9 AT TIME STEP325, STRESS PERIOD   1
 UBDSV1 SAVING "FLOW RIGHT FACE " ON UNIT   9 AT TIME STEP325, STRESS PERIOD   1
 UBDSV1 SAVING "FLOW FRONT FACE " ON UNIT   9 AT TIME STEP325, STRESS PERIOD   1
 UBDSV4 SAVING "   RIVER LEAKAGE" ON UNIT   9 AT TIME STEP325, STRESS PERIOD   1
 UBDSV3 SAVING "        RECHARGE" ON UNIT   9 AT TIME STEP325, STRESS PERIOD   1

 HEAD WILL BE SAVED ON UNIT   37 AT END OF TIME STEP  325, STRESS PERIOD    1

 DRAWDOWN WILL BE SAVED ON UNIT   38 AT END OF TIME STEP  325, STRESS PERIOD    1
1
  VOLUMETRIC BUDGET FOR ENTIRE MODEL AT END OF TIME STEP  325, STRESS PERIOD   1
  ------------------------------------------------------------------------------

     CUMULATIVE VOLUMES      L**3       RATES FOR THIS TIME STEP      L**3/T
     ------------------                 ------------------------

           IN:                                      IN:
           ---                                      ---
             STORAGE =   273363936.0000               STORAGE =      761871.5625
       CONSTANT HEAD =           0.0000         CONSTANT HEAD =           0.0000
       RIVER LEAKAGE =  1199623552.0000         RIVER LEAKAGE =      387804.6875
            RECHARGE =     6910582.5000              RECHARGE =        2420.0684

            TOTAL IN =  1479898112.0000              TOTAL IN =     1152096.2500

          OUT:                                     OUT:
          ----                                     ----
             STORAGE =  1455960960.0000               STORAGE =      958700.6875
       CONSTANT HEAD =           0.0000         CONSTANT HEAD =           0.0000
       RIVER LEAKAGE =    24380886.0000         RIVER LEAKAGE =      194331.5156
            RECHARGE =           0.0000              RECHARGE =           0.0000

           TOTAL OUT =  1480341888.0000             TOTAL OUT =     1153032.2500

            IN - OUT =     -443776.0000              IN - OUT =        -936.0000

 PERCENT DISCREPANCY =          -0.03     PERCENT DISCREPANCY =          -0.08






         TIME SUMMARY AT END OF TIME STEP  325 IN STRESS PERIOD    1
                    SECONDS     MINUTES      HOURS       DAYS        YEARS
                    -----------------------------------------------------------
   TIME STEP LENGTH  86400.      1440.0      24.000      1.0000     2.73785E-03
 STRESS PERIOD TIME 2.80800E+07 4.68000E+05  7800.0      325.00     0.88980    
         TOTAL TIME 2.80800E+07 4.68000E+05  7800.0      325.00     0.88980    
1
 
 SOLVING FOR HEAD 
                                                   Max.-Head-Change                        Max.-Flux-Residual
  Residual-Control   Outer-Iter.   Inner-Iter.     Column Row Layer    Max.-Head-Change    Column Row Layer    Max.-Flux-Residual            L2-New               L2-Old           Solver-Max-Delh
          0                 1           2            40  100     1       0.3914924066E+00      36   86    1       0.3166482434E+05      0.9675449430E+05      0.4726145935E+03      0.3914924066E+00
          0                 2           2            26   78     1       0.4406506324E-01      36   86    1      -0.3166515060E+04      0.9675473943E+04      0.9675449430E+05      0.4406506324E-01
          0                 3           2            26   78     1       0.4404933918E-01      42   53    1      -0.6768904523E+03      0.8320436067E+03      0.9675473943E+04      0.4404933918E-01

    ------------------------------------------------
       NWT REQUIRED            3 OUTER ITERATIONS 
       AND A TOTAL OF          6 INNER ITERATIONS.
    ------------------------------------------------

 OUTPUT CONTROL FOR STRESS PERIOD    1   TIME STEP  326
    SAVE HEAD FOR ALL LAYERS
    SAVE DRAWDOWN FOR ALL LAYERS
    SAVE BUDGET
    PRINT BUDGET
 UBDSV1 SAVING "         STORAGE" ON UNIT   9 AT TIME STEP326, STRESS PERIOD   1
 UBDSV2 SAVING "   CONSTANT HEAD" ON UNIT   9 AT TIME STEP326, STRESS PERIOD   1
 UBDSV1 SAVING "FLOW RIGHT FACE " ON UNIT   9 AT TIME STEP326, STRESS PERIOD   1
 UBDSV1 SAVING "FLOW FRONT FACE " ON UNIT   9 AT TIME STEP326, STRESS PERIOD   1
 UBDSV4 SAVING "   RIVER LEAKAGE" ON UNIT   9 AT TIME STEP326, STRESS PERIOD   1
 UBDSV3 SAVING "        RECHARGE" ON UNIT   9 AT TIME STEP326, STRESS PERIOD   1

 HEAD WILL BE SAVED ON UNIT   37 AT END OF TIME STEP  326, STRESS PERIOD    1

 DRAWDOWN WILL BE SAVED ON UNIT   38 AT END OF TIME STEP  326, STRESS PERIOD    1
1
  VOLUMETRIC BUDGET FOR ENTIRE MODEL AT END OF TIME STEP  326, STRESS PERIOD   1
  ------------------------------------------------------------------------------

     CUMULATIVE VOLUMES      L**3       RATES FOR THIS TIME STEP      L**3/T
     ------------------                 ------------------------

           IN:                                      IN:
           ---                                      ---
             STORAGE =   274117120.0000               STORAGE =      753171.6250
       CONSTANT HEAD =           0.0000         CONSTANT HEAD =           0.0000
       RIVER LEAKAGE =  1200019072.0000         RIVER LEAKAGE =      395483.9062
            RECHARGE =     6918488.5000              RECHARGE =        7906.0381

            TOTAL IN =  1481054720.0000              TOTAL IN =     1156561.5000

          OUT:                                     OUT:
          ----                                     ----
             STORAGE =  1456923264.0000               STORAGE =      962319.4375
       CONSTANT HEAD =           0.0000         CONSTANT HEAD =           0.0000
       RIVER LEAKAGE =    24575200.0000         RIVER LEAKAGE =      194314.8438
            RECHARGE =           0.0000              RECHARGE =           0.0000

           TOTAL OUT =  1481498496.0000             TOTAL OUT =     1156634.2500

            IN - OUT =     -443776.0000              IN - OUT =         -72.7500

 PERCENT DISCREPANCY =          -0.03     PERCENT DISCREPANCY =          -0.01






         TIME SUMMARY AT END OF TIME STEP  326 IN STRESS PERIOD    1
                    SECONDS     MINUTES      HOURS       DAYS        YEARS
                    -----------------------------------------------------------
   TIME STEP LENGTH  86400.      1440.0      24.000      1.0000     2.73785E-03
 STRESS PERIOD TIME 2.81664E+07 4.69440E+05  7824.0      326.00     0.89254    
         TOTAL TIME 2.81664E+07 4.69440E+05  7824.0      326.00     0.89254    
1
 
 SOLVING FOR HEAD 
                                                   Max.-Head-Change                        Max.-Flux-Residual
  Residual-Control   Outer-Iter.   Inner-Iter.     Column Row Layer    Max.-Head-Change    Column Row Layer    Max.-Flux-Residual            L2-New               L2-Old           Solver-Max-Delh
          0                 1           2            40  100     1       0.2644600416E+01      26  115    1       0.2836493287E+06      0.6259789754E+06      0.4253833659E+02      0.2644600416E+01
          0                 2           2            29  111     1       0.1486272774E+03      29  111    1       0.4724943091E+05      0.7827357934E+05      0.6259789754E+06      0.1486272774E+03
          1                 2           0            29  111     1       0.1040390924E+03      29  111    1      -0.1808426532E+08      0.1808426742E+08      0.7827357934E+05      0.1486272774E+03
          2                 2           0            29  111     1       0.7282736346E+02      29  111    1      -0.1264272801E+08      0.1264274596E+08      0.1808426742E+08      0.1486272774E+03
          3                 2           0            29  111     1       0.5097915355E+02      29  111    1      -0.8833651954E+07      0.8833714780E+07      0.1264274596E+08      0.1486272774E+03
          4                 2           0            29  111     1       0.3568540688E+02      29  111    1      -0.6167298761E+07      0.6167441547E+07      0.8833714780E+07      0.1486272774E+03
          5                 2           0            29  111     1       0.2497978439E+02      29  111    1      -0.4300851557E+07      0.4301120235E+07      0.6167441547E+07      0.1486272774E+03
          6                 2           0            29  111     1       0.1748584877E+02      29  111    1      -0.2994338537E+07      0.2994796398E+07      0.4301120235E+07      0.1486272774E+03
          7                 2           0            29  111     1       0.1224009393E+02      29  111    1      -0.2079813715E+07      0.2080550787E+07      0.2994796398E+07      0.1486272774E+03
          8                 2           0            29  111     1       0.8568065608E+01      29  111    1      -0.1439948623E+07      0.1441095581E+07      0.2080550787E+07      0.1486272774E+03
                                                   Max.-Head-Change                        Max.-Flux-Residual
  Residual-Control   Outer-Iter.   Inner-Iter.     Column Row Layer    Max.-Head-Change    Column Row Layer    Max.-Flux-Residual            L2-New               L2-Old           Solver-Max-Delh
          9                 2           0            29  111     1       0.5997645823E+01      29  111    1      -0.9920430677E+06      0.9937936096E+06      0.1441095581E+07      0.1486272774E+03
         10                 2           0            29  111     1       0.4198352005E+01      29  111    1      -0.6785091847E+06      0.6811562946E+06      0.9937936096E+06      0.1486272774E+03
         11                 2           0            29  111     1       0.2938846353E+01      29  111    1      -0.4590354705E+06      0.4630335235E+06      0.6811562946E+06      0.1486272774E+03
         12                 2           0            29  111     1       0.2057192412E+01      29  111    1      -0.3054038734E+06      0.3114799146E+06      0.4630335235E+06      0.1486272774E+03
         13                 2           0            29  111     1       0.1440034664E+01      29  111    1      -0.1978617573E+06      0.2072221103E+06      0.3114799146E+06      0.1486272774E+03
         14                 2           0            29  111     1       0.1008024248E+01      29  111    1      -0.1225822773E+06      0.1372907643E+06      0.2072221103E+06      0.1486272774E+03
         15                 2           0            29  111     1       0.7056169614E+00      29  111    1      -0.6988664228E+05      0.9342367570E+05      0.1372907643E+06      0.1486272774E+03
          0                 3           2            29  111     1      -0.2570450239E+00      29  111    1      -0.3299969837E+05      0.7034136215E+05      0.9342367570E+05     -0.2570450239E+00
          0                 4           2            26   78     1       0.4396760596E-01      29  111    1      -0.1649984109E+04      0.3516537096E+04      0.7034136215E+05      0.4396760596E-01

    ------------------------------------------------
       NWT REQUIRED            4 OUTER ITERATIONS 
       AND A TOTAL OF          8 INNER ITERATIONS.
    ------------------------------------------------

 OUTPUT CONTROL FOR STRESS PERIOD    1   TIME STEP  327
    SAVE HEAD FOR ALL LAYERS
    SAVE DRAWDOWN FOR ALL LAYERS
    SAVE BUDGET
    PRINT BUDGET
 UBDSV1 SAVING "         STORAGE" ON UNIT   9 AT TIME STEP327, STRESS PERIOD   1
 UBDSV2 SAVING "   CONSTANT HEAD" ON UNIT   9 AT TIME STEP327, STRESS PERIOD   1
 UBDSV1 SAVING "FLOW RIGHT FACE " ON UNIT   9 AT TIME STEP327, STRESS PERIOD   1
 UBDSV1 SAVING "FLOW FRONT FACE " ON UNIT   9 AT TIME STEP327, STRESS PERIOD   1
 UBDSV4 SAVING "   RIVER LEAKAGE" ON UNIT   9 AT TIME STEP327, STRESS PERIOD   1
 UBDSV3 SAVING "        RECHARGE" ON UNIT   9 AT TIME STEP327, STRESS PERIOD   1

 HEAD WILL BE SAVED ON UNIT   37 AT END OF TIME STEP  327, STRESS PERIOD    1

 DRAWDOWN WILL BE SAVED ON UNIT   38 AT END OF TIME STEP  327, STRESS PERIOD    1
1
  VOLUMETRIC BUDGET FOR ENTIRE MODEL AT END OF TIME STEP  327, STRESS PERIOD   1
  ------------------------------------------------------------------------------

     CUMULATIVE VOLUMES      L**3       RATES FOR THIS TIME STEP      L**3/T
     ------------------                 ------------------------

           IN:                                      IN:
           ---                                      ---
             STORAGE =   274834848.0000               STORAGE =      717722.0625
       CONSTANT HEAD =           0.0000         CONSTANT HEAD =           0.0000
       RIVER LEAKAGE =  1200677888.0000         RIVER LEAKAGE =      658803.4375
            RECHARGE =     7038411.5000              RECHARGE =      119923.0234

            TOTAL IN =  1482551168.0000              TOTAL IN =     1496448.5000

          OUT:                                     OUT:
          ----                                     ----
             STORAGE =  1458225152.0000               STORAGE =     1301890.1250
       CONSTANT HEAD =           0.0000         CONSTANT HEAD =           0.0000
       RIVER LEAKAGE =    24770806.0000         RIVER LEAKAGE =      195605.9531
            RECHARGE =           0.0000              RECHARGE =           0.0000

           TOTAL OUT =  1482995968.0000             TOTAL OUT =     1497496.1250

            IN - OUT =     -444800.0000              IN - OUT =       -1047.6250

 PERCENT DISCREPANCY =          -0.03     PERCENT DISCREPANCY =          -0.07






         TIME SUMMARY AT END OF TIME STEP  327 IN STRESS PERIOD    1
                    SECONDS     MINUTES      HOURS       DAYS        YEARS
                    -----------------------------------------------------------
   TIME STEP LENGTH  86400.      1440.0      24.000      1.0000     2.73785E-03
 STRESS PERIOD TIME 2.82528E+07 4.70880E+05  7848.0      327.00     0.89528    
         TOTAL TIME 2.82528E+07 4.70880E+05  7848.0      327.00     0.89528    
1
 
 SOLVING FOR HEAD 
                                                   Max.-Head-Change                        Max.-Flux-Residual
  Residual-Control   Outer-Iter.   Inner-Iter.     Column Row Layer    Max.-Head-Change    Column Row Layer    Max.-Flux-Residual            L2-New               L2-Old           Solver-Max-Delh
          0                 1           2            40  100     1       0.1395325230E+01      26  115    1      -0.2845413638E+06      0.6197170201E+06      0.1759894823E+03      0.1395325230E+01
          0                 2           2            29  111     1       0.2346266199E+01      26  115    1       0.2845414552E+05      0.6180368755E+05      0.6197170201E+06      0.2346266199E+01
          1                 2           0            29  111     1       0.1642386311E+01      29  111    1      -0.2815466117E+06      0.2815635666E+06      0.6180368755E+05      0.2346266199E+01
          2                 2           0            29  111     1       0.1149670398E+01      29  111    1      -0.1956901996E+06      0.1967822068E+06      0.2815635666E+06      0.2346266199E+01
          3                 2           0            29  111     1       0.8047692650E+00      29  111    1      -0.1355907121E+06      0.1395560115E+06      0.1967822068E+06      0.2346266199E+01
          4                 2           0            29  111     1       0.5633384759E+00      29  111    1      -0.9352107167E+05      0.1023807796E+06      0.1395560115E+06      0.2346266199E+01
          5                 2           0            29  111     1       0.3943369264E+00      29  111    1      -0.6407232385E+05      0.7987953581E+05      0.1023807796E+06      0.2346266199E+01
          0                 3           2            29  111     1      -0.2930161993E+00      29  111    1      -0.4345820073E+05      0.6771566881E+05      0.7987953581E+05     -0.2930161993E+00
          0                 4           2            29  111     1      -0.5201099538E-01      29  111    1      -0.7713374683E+04      0.8138873688E+04      0.6771566881E+05     -0.5201099538E-01
          0                 5           2            26   78     1       0.4387470124E-01      29  111    1      -0.1369023847E+04      0.1375211597E+04      0.8138873688E+04      0.4387470124E-01

    ------------------------------------------------
       NWT REQUIRED            5 OUTER ITERATIONS 
       AND A TOTAL OF         10 INNER ITERATIONS.
    ------------------------------------------------

 OUTPUT CONTROL FOR STRESS PERIOD    1   TIME STEP  328
    SAVE HEAD FOR ALL LAYERS
    SAVE DRAWDOWN FOR ALL LAYERS
    SAVE BUDGET
    PRINT BUDGET
 UBDSV1 SAVING "         STORAGE" ON UNIT   9 AT TIME STEP328, STRESS PERIOD   1
 UBDSV2 SAVING "   CONSTANT HEAD" ON UNIT   9 AT TIME STEP328, STRESS PERIOD   1
 UBDSV1 SAVING "FLOW RIGHT FACE " ON UNIT   9 AT TIME STEP328, STRESS PERIOD   1
 UBDSV1 SAVING "FLOW FRONT FACE " ON UNIT   9 AT TIME STEP328, STRESS PERIOD   1
 UBDSV4 SAVING "   RIVER LEAKAGE" ON UNIT   9 AT TIME STEP328, STRESS PERIOD   1
 UBDSV3 SAVING "        RECHARGE" ON UNIT   9 AT TIME STEP328, STRESS PERIOD   1

 HEAD WILL BE SAVED ON UNIT   37 AT END OF TIME STEP  328, STRESS PERIOD    1

 DRAWDOWN WILL BE SAVED ON UNIT   38 AT END OF TIME STEP  328, STRESS PERIOD    1
1
  VOLUMETRIC BUDGET FOR ENTIRE MODEL AT END OF TIME STEP  328, STRESS PERIOD   1
  ------------------------------------------------------------------------------

     CUMULATIVE VOLUMES      L**3       RATES FOR THIS TIME STEP      L**3/T
     ------------------                 ------------------------

           IN:                                      IN:
           ---                                      ---
             STORAGE =   275556704.0000               STORAGE =      721851.4375
       CONSTANT HEAD =           0.0000         CONSTANT HEAD =           0.0000
       RIVER LEAKAGE =  1201069568.0000         RIVER LEAKAGE =      391659.3438
            RECHARGE =     7150094.5000              RECHARGE =      111683.1328

            TOTAL IN =  1483776384.0000              TOTAL IN =     1225193.8750

          OUT:                                     OUT:
          ----                                     ----
             STORAGE =  1459247616.0000               STORAGE =     1022428.1250
       CONSTANT HEAD =           0.0000         CONSTANT HEAD =           0.0000
       RIVER LEAKAGE =    24973740.0000         RIVER LEAKAGE =      202933.9531
            RECHARGE =           0.0000              RECHARGE =           0.0000

           TOTAL OUT =  1484221312.0000             TOTAL OUT =     1225362.1250

            IN - OUT =     -444928.0000              IN - OUT =        -168.2500

 PERCENT DISCREPANCY =          -0.03     PERCENT DISCREPANCY =          -0.01






         TIME SUMMARY AT END OF TIME STEP  328 IN STRESS PERIOD    1
                    SECONDS     MINUTES      HOURS       DAYS        YEARS
                    -----------------------------------------------------------
   TIME STEP LENGTH  86400.      1440.0      24.000      1.0000     2.73785E-03
 STRESS PERIOD TIME 2.83392E+07 4.72320E+05  7872.0      328.00     0.89802    
         TOTAL TIME 2.83392E+07 4.72320E+05  7872.0      328.00     0.89802    
1
 
 SOLVING FOR HEAD 
                                                   Max.-Head-Change                        Max.-Flux-Residual
  Residual-Control   Outer-Iter.   Inner-Iter.     Column Row Layer    Max.-Head-Change    Column Row Layer    Max.-Flux-Residual            L2-New               L2-Old           Solver-Max-Delh
          0                 1           2            40  100     1      -0.6441576300E+00      36   86    1       0.3158706261E+05      0.9509505320E+05      0.2432241451E+03     -0.6441576300E+00
          0                 2           2            40  100     1       0.5566479695E-01      36   86    1      -0.3158738710E+04      0.9508899678E+04      0.9509505320E+05      0.5566479695E-01

    ------------------------------------------------
       NWT REQUIRED            2 OUTER ITERATIONS 
       AND A TOTAL OF          4 INNER ITERATIONS.
    ------------------------------------------------

 OUTPUT CONTROL FOR STRESS PERIOD    1   TIME STEP  329
    SAVE HEAD FOR ALL LAYERS
    SAVE DRAWDOWN FOR ALL LAYERS
    SAVE BUDGET
    PRINT BUDGET
 UBDSV1 SAVING "         STORAGE" ON UNIT   9 AT TIME STEP329, STRESS PERIOD   1
 UBDSV2 SAVING "   CONSTANT HEAD" ON UNIT   9 AT TIME STEP329, STRESS PERIOD   1
 UBDSV1 SAVING "FLOW RIGHT FACE " ON UNIT   9 AT TIME STEP329, STRESS PERIOD   1
 UBDSV1 SAVING "FLOW FRONT FACE " ON UNIT   9 AT TIME STEP329, STRESS PERIOD   1
 UBDSV4 SAVING "   RIVER LEAKAGE" ON UNIT   9 AT TIME STEP329, STRESS PERIOD   1
 UBDSV3 SAVING "        RECHARGE" ON UNIT   9 AT TIME STEP329, STRESS PERIOD   1

 HEAD WILL BE SAVED ON UNIT   37 AT END OF TIME STEP  329, STRESS PERIOD    1

 DRAWDOWN WILL BE SAVED ON UNIT   38 AT END OF TIME STEP  329, STRESS PERIOD    1
1
  VOLUMETRIC BUDGET FOR ENTIRE MODEL AT END OF TIME STEP  329, STRESS PERIOD   1
  ------------------------------------------------------------------------------

     CUMULATIVE VOLUMES      L**3       RATES FOR THIS TIME STEP      L**3/T
     ------------------                 ------------------------

           IN:                                      IN:
           ---                                      ---
             STORAGE =   276293888.0000               STORAGE =      737187.2500
       CONSTANT HEAD =           0.0000         CONSTANT HEAD =           0.0000
       RIVER LEAKAGE =  1201456768.0000         RIVER LEAKAGE =      387231.8438
            RECHARGE =     7212207.0000              RECHARGE =       62112.3125

            TOTAL IN =  1484962816.0000              TOTAL IN =     1186531.3750

          OUT:                                     OUT:
          ----                                     ----
             STORAGE =  1460237440.0000               STORAGE =      989831.5625
       CONSTANT HEAD =           0.0000         CONSTANT HEAD =           0.0000
       RIVER LEAKAGE =    25171242.0000         RIVER LEAKAGE =      197502.5781
            RECHARGE =           0.0000              RECHARGE =           0.0000

           TOTAL OUT =  1485408640.0000             TOTAL OUT =     1187334.1250

            IN - OUT =     -445824.0000              IN - OUT =        -802.7500

 PERCENT DISCREPANCY =          -0.03     PERCENT DISCREPANCY =          -0.07






         TIME SUMMARY AT END OF TIME STEP  329 IN STRESS PERIOD    1
                    SECONDS     MINUTES      HOURS       DAYS        YEARS
                    -----------------------------------------------------------
   TIME STEP LENGTH  86400.      1440.0      24.000      1.0000     2.73785E-03
 STRESS PERIOD TIME 2.84256E+07 4.73760E+05  7896.0      329.00     0.90075    
         TOTAL TIME 2.84256E+07 4.73760E+05  7896.0      329.00     0.90075    
1
 
 SOLVING FOR HEAD 
                                                   Max.-Head-Change                        Max.-Flux-Residual
  Residual-Control   Outer-Iter.   Inner-Iter.     Column Row Layer    Max.-Head-Change    Column Row Layer    Max.-Flux-Residual            L2-New               L2-Old           Solver-Max-Delh
          0                 1           2            40  100     1      -0.1395241570E+01      36   86    1       0.3156099426E+05      0.9431360863E+05      0.4755182867E+03     -0.1395241570E+01
          1                 1           0            40  100     1      -0.9766690822E+00      29  111    1       0.1120820482E+07      0.1120860191E+07      0.9431360863E+05     -0.1395241570E+01
          2                 1           0            40  100     1      -0.6836683459E+00      29  111    1       0.7710432424E+06      0.7713483756E+06      0.1120860191E+07     -0.1395241570E+01
          3                 1           0            40  100     1      -0.4785678340E+00      29  111    1       0.5261955474E+06      0.5279888236E+06      0.7713483756E+06     -0.1395241570E+01
          4                 1           0            40  100     1      -0.3349974781E+00      29  111    1       0.3548003842E+06      0.3596281884E+06      0.5279888236E+06     -0.1395241570E+01
          5                 1           0            40  100     1      -0.2344982307E+00      29  111    1       0.2348229001E+06      0.2448647534E+06      0.3596281884E+06     -0.1395241570E+01
          6                 1           0            40  100     1      -0.1641487587E+00      29  111    1       0.1508382353E+06      0.1692992018E+06      0.2448647534E+06     -0.1395241570E+01
          7                 1           0            40  100     1      -0.1149041291E+00      29  111    1       0.9204876160E+05      0.1233476221E+06      0.1692992018E+06     -0.1395241570E+01
          0                 2           2            40  100     1      -0.1268835672E+01      29  111    1       0.5089602813E+05      0.9973343317E+05      0.1233476221E+06     -0.1268835672E+01
          0                 3           2            40  100     1       0.1096276851E+00      36   86    1      -0.2870216030E+04      0.8946467181E+04      0.9973343317E+05      0.1096276851E+00

    ------------------------------------------------
       NWT REQUIRED            3 OUTER ITERATIONS 
       AND A TOTAL OF          6 INNER ITERATIONS.
    ------------------------------------------------

 OUTPUT CONTROL FOR STRESS PERIOD    1   TIME STEP  330
    SAVE HEAD FOR ALL LAYERS
    SAVE DRAWDOWN FOR ALL LAYERS
    SAVE BUDGET
    PRINT BUDGET
 UBDSV1 SAVING "         STORAGE" ON UNIT   9 AT TIME STEP330, STRESS PERIOD   1
 UBDSV2 SAVING "   CONSTANT HEAD" ON UNIT   9 AT TIME STEP330, STRESS PERIOD   1
 UBDSV1 SAVING "FLOW RIGHT FACE " ON UNIT   9 AT TIME STEP330, STRESS PERIOD   1
 UBDSV1 SAVING "FLOW FRONT FACE " ON UNIT   9 AT TIME STEP330, STRESS PERIOD   1
 UBDSV4 SAVING "   RIVER LEAKAGE" ON UNIT   9 AT TIME STEP330, STRESS PERIOD   1
 UBDSV3 SAVING "        RECHARGE" ON UNIT   9 AT TIME STEP330, STRESS PERIOD   1

 HEAD WILL BE SAVED ON UNIT   37 AT END OF TIME STEP  330, STRESS PERIOD    1

 DRAWDOWN WILL BE SAVED ON UNIT   38 AT END OF TIME STEP  330, STRESS PERIOD    1
1
  VOLUMETRIC BUDGET FOR ENTIRE MODEL AT END OF TIME STEP  330, STRESS PERIOD   1
  ------------------------------------------------------------------------------

     CUMULATIVE VOLUMES      L**3       RATES FOR THIS TIME STEP      L**3/T
     ------------------                 ------------------------

           IN:                                      IN:
           ---                                      ---
             STORAGE =   277043680.0000               STORAGE =      749782.4375
       CONSTANT HEAD =           0.0000         CONSTANT HEAD =           0.0000
       RIVER LEAKAGE =  1201842176.0000         RIVER LEAKAGE =      385364.6562
            RECHARGE =     7239260.0000              RECHARGE =       27053.2246

            TOTAL IN =  1486125184.0000              TOTAL IN =     1162200.2500

          OUT:                                     OUT:
          ----                                     ----
             STORAGE =  1461204608.0000               STORAGE =      967119.3125
       CONSTANT HEAD =           0.0000         CONSTANT HEAD =           0.0000
       RIVER LEAKAGE =    25366992.0000         RIVER LEAKAGE =      195750.2188
            RECHARGE =           0.0000              RECHARGE =           0.0000

           TOTAL OUT =  1486571648.0000             TOTAL OUT =     1162869.5000

            IN - OUT =     -446464.0000              IN - OUT =        -669.2500

 PERCENT DISCREPANCY =          -0.03     PERCENT DISCREPANCY =          -0.06






         TIME SUMMARY AT END OF TIME STEP  330 IN STRESS PERIOD    1
                    SECONDS     MINUTES      HOURS       DAYS        YEARS
                    -----------------------------------------------------------
   TIME STEP LENGTH  86400.      1440.0      24.000      1.0000     2.73785E-03
 STRESS PERIOD TIME 2.85120E+07 4.75200E+05  7920.0      330.00     0.90349    
         TOTAL TIME 2.85120E+07 4.75200E+05  7920.0      330.00     0.90349    
1
 
 SOLVING FOR HEAD 
                                                   Max.-Head-Change                        Max.-Flux-Residual
  Residual-Control   Outer-Iter.   Inner-Iter.     Column Row Layer    Max.-Head-Change    Column Row Layer    Max.-Flux-Residual            L2-New               L2-Old           Solver-Max-Delh
          0                 1           2            40  100     1      -0.1135874558E+01      36   86    1       0.3153491702E+05      0.9412752377E+05      0.4474045017E+03     -0.1135874558E+01
          0                 2           2            40  100     1       0.9813661067E-01      36   86    1      -0.3153524016E+04      0.9412779518E+04      0.9412752377E+05      0.9813661067E-01

    ------------------------------------------------
       NWT REQUIRED            2 OUTER ITERATIONS 
       AND A TOTAL OF          4 INNER ITERATIONS.
    ------------------------------------------------

 OUTPUT CONTROL FOR STRESS PERIOD    1   TIME STEP  331
    SAVE HEAD FOR ALL LAYERS
    SAVE DRAWDOWN FOR ALL LAYERS
    SAVE BUDGET
    PRINT BUDGET
 UBDSV1 SAVING "         STORAGE" ON UNIT   9 AT TIME STEP331, STRESS PERIOD   1
 UBDSV2 SAVING "   CONSTANT HEAD" ON UNIT   9 AT TIME STEP331, STRESS PERIOD   1
 UBDSV1 SAVING "FLOW RIGHT FACE " ON UNIT   9 AT TIME STEP331, STRESS PERIOD   1
 UBDSV1 SAVING "FLOW FRONT FACE " ON UNIT   9 AT TIME STEP331, STRESS PERIOD   1
 UBDSV4 SAVING "   RIVER LEAKAGE" ON UNIT   9 AT TIME STEP331, STRESS PERIOD   1
 UBDSV3 SAVING "        RECHARGE" ON UNIT   9 AT TIME STEP331, STRESS PERIOD   1

 HEAD WILL BE SAVED ON UNIT   37 AT END OF TIME STEP  331, STRESS PERIOD    1

 DRAWDOWN WILL BE SAVED ON UNIT   38 AT END OF TIME STEP  331, STRESS PERIOD    1
1
  VOLUMETRIC BUDGET FOR ENTIRE MODEL AT END OF TIME STEP  331, STRESS PERIOD   1
  ------------------------------------------------------------------------------

     CUMULATIVE VOLUMES      L**3       RATES FOR THIS TIME STEP      L**3/T
     ------------------                 ------------------------

           IN:                                      IN:
           ---                                      ---
             STORAGE =   277799520.0000               STORAGE =      755843.4375
       CONSTANT HEAD =           0.0000         CONSTANT HEAD =           0.0000
       RIVER LEAKAGE =  1202228992.0000         RIVER LEAKAGE =      386871.8750
            RECHARGE =     7249834.5000              RECHARGE =       10574.6074

            TOTAL IN =  1487278336.0000              TOTAL IN =     1153289.8750

          OUT:                                     OUT:
          ----                                     ----
             STORAGE =  1462163968.0000               STORAGE =      959393.8750
       CONSTANT HEAD =           0.0000         CONSTANT HEAD =           0.0000
       RIVER LEAKAGE =    25561844.0000         RIVER LEAKAGE =      194852.2812
            RECHARGE =           0.0000              RECHARGE =           0.0000

           TOTAL OUT =  1487725824.0000             TOTAL OUT =     1154246.1250

            IN - OUT =     -447488.0000              IN - OUT =        -956.2500

 PERCENT DISCREPANCY =          -0.03     PERCENT DISCREPANCY =          -0.08






         TIME SUMMARY AT END OF TIME STEP  331 IN STRESS PERIOD    1
                    SECONDS     MINUTES      HOURS       DAYS        YEARS
                    -----------------------------------------------------------
   TIME STEP LENGTH  86400.      1440.0      24.000      1.0000     2.73785E-03
 STRESS PERIOD TIME 2.85984E+07 4.76640E+05  7944.0      331.00     0.90623    
         TOTAL TIME 2.85984E+07 4.76640E+05  7944.0      331.00     0.90623    
1
 
 SOLVING FOR HEAD 
                                                   Max.-Head-Change                        Max.-Flux-Residual
  Residual-Control   Outer-Iter.   Inner-Iter.     Column Row Layer    Max.-Head-Change    Column Row Layer    Max.-Flux-Residual            L2-New               L2-Old           Solver-Max-Delh
          0                 1           2            40  100     1      -0.6610730408E+00      36   86    1       0.3150884422E+05      0.9749107668E+05      0.4707227248E+03     -0.6610730408E+00
          0                 2           2            40  100     1       0.5711309514E-01      36   86    1      -0.3150916438E+04      0.9749132755E+04      0.9749107668E+05      0.5711309514E-01

    ------------------------------------------------
       NWT REQUIRED            2 OUTER ITERATIONS 
       AND A TOTAL OF          4 INNER ITERATIONS.
    ------------------------------------------------

 OUTPUT CONTROL FOR STRESS PERIOD    1   TIME STEP  332
    SAVE HEAD FOR ALL LAYERS
    SAVE DRAWDOWN FOR ALL LAYERS
    SAVE BUDGET
    PRINT BUDGET
 UBDSV1 SAVING "         STORAGE" ON UNIT   9 AT TIME STEP332, STRESS PERIOD   1
 UBDSV2 SAVING "   CONSTANT HEAD" ON UNIT   9 AT TIME STEP332, STRESS PERIOD   1
 UBDSV1 SAVING "FLOW RIGHT FACE " ON UNIT   9 AT TIME STEP332, STRESS PERIOD   1
 UBDSV1 SAVING "FLOW FRONT FACE " ON UNIT   9 AT TIME STEP332, STRESS PERIOD   1
 UBDSV4 SAVING "   RIVER LEAKAGE" ON UNIT   9 AT TIME STEP332, STRESS PERIOD   1
 UBDSV3 SAVING "        RECHARGE" ON UNIT   9 AT TIME STEP332, STRESS PERIOD   1

 HEAD WILL BE SAVED ON UNIT   37 AT END OF TIME STEP  332, STRESS PERIOD    1

 DRAWDOWN WILL BE SAVED ON UNIT   38 AT END OF TIME STEP  332, STRESS PERIOD    1
1
  VOLUMETRIC BUDGET FOR ENTIRE MODEL AT END OF TIME STEP  332, STRESS PERIOD   1
  ------------------------------------------------------------------------------

     CUMULATIVE VOLUMES      L**3       RATES FOR THIS TIME STEP      L**3/T
     ------------------                 ------------------------

           IN:                                      IN:
           ---                                      ---
             STORAGE =   278554688.0000               STORAGE =      755171.6250
       CONSTANT HEAD =           0.0000         CONSTANT HEAD =           0.0000
       RIVER LEAKAGE =  1202640000.0000         RIVER LEAKAGE =      411003.6250
            RECHARGE =     7254000.5000              RECHARGE =        4165.7983

            TOTAL IN =  1488448768.0000              TOTAL IN =     1170341.0000

          OUT:                                     OUT:
          ----                                     ----
             STORAGE =  1463141376.0000               STORAGE =      977381.5625
       CONSTANT HEAD =           0.0000         CONSTANT HEAD =           0.0000
       RIVER LEAKAGE =    25756894.0000         RIVER LEAKAGE =      195049.0625
            RECHARGE =           0.0000              RECHARGE =           0.0000

           TOTAL OUT =  1488898304.0000             TOTAL OUT =     1172430.6250

            IN - OUT =     -449536.0000              IN - OUT =       -2089.6250

 PERCENT DISCREPANCY =          -0.03     PERCENT DISCREPANCY =          -0.18






         TIME SUMMARY AT END OF TIME STEP  332 IN STRESS PERIOD    1
                    SECONDS     MINUTES      HOURS       DAYS        YEARS
                    -----------------------------------------------------------
   TIME STEP LENGTH  86400.      1440.0      24.000      1.0000     2.73785E-03
 STRESS PERIOD TIME 2.86848E+07 4.78080E+05  7968.0      332.00     0.90897    
         TOTAL TIME 2.86848E+07 4.78080E+05  7968.0      332.00     0.90897    
1
 
 SOLVING FOR HEAD 
                                                   Max.-Head-Change                        Max.-Flux-Residual
  Residual-Control   Outer-Iter.   Inner-Iter.     Column Row Layer    Max.-Head-Change    Column Row Layer    Max.-Flux-Residual            L2-New               L2-Old           Solver-Max-Delh
          0                 1           2            40  100     1      -0.3173461544E+00      36   86    1       0.3148284578E+05      0.9713751307E+05      0.4875371575E+03     -0.3173461544E+00
          0                 2           2            26   78     1       0.4359398308E-01      36   86    1      -0.3148316801E+04      0.9713778705E+04      0.9713751307E+05      0.4359398308E-01

    ------------------------------------------------
       NWT REQUIRED            2 OUTER ITERATIONS 
       AND A TOTAL OF          4 INNER ITERATIONS.
    ------------------------------------------------

 OUTPUT CONTROL FOR STRESS PERIOD    1   TIME STEP  333
    SAVE HEAD FOR ALL LAYERS
    SAVE DRAWDOWN FOR ALL LAYERS
    SAVE BUDGET
    PRINT BUDGET
 UBDSV1 SAVING "         STORAGE" ON UNIT   9 AT TIME STEP333, STRESS PERIOD   1
 UBDSV2 SAVING "   CONSTANT HEAD" ON UNIT   9 AT TIME STEP333, STRESS PERIOD   1
 UBDSV1 SAVING "FLOW RIGHT FACE " ON UNIT   9 AT TIME STEP333, STRESS PERIOD   1
 UBDSV1 SAVING "FLOW FRONT FACE " ON UNIT   9 AT TIME STEP333, STRESS PERIOD   1
 UBDSV4 SAVING "   RIVER LEAKAGE" ON UNIT   9 AT TIME STEP333, STRESS PERIOD   1
 UBDSV3 SAVING "        RECHARGE" ON UNIT   9 AT TIME STEP333, STRESS PERIOD   1

 HEAD WILL BE SAVED ON UNIT   37 AT END OF TIME STEP  333, STRESS PERIOD    1

 DRAWDOWN WILL BE SAVED ON UNIT   38 AT END OF TIME STEP  333, STRESS PERIOD    1
1
  VOLUMETRIC BUDGET FOR ENTIRE MODEL AT END OF TIME STEP  333, STRESS PERIOD   1
  ------------------------------------------------------------------------------

     CUMULATIVE VOLUMES      L**3       RATES FOR THIS TIME STEP      L**3/T
     ------------------                 ------------------------

           IN:                                      IN:
           ---                                      ---
             STORAGE =   279314048.0000               STORAGE =      759376.0000
       CONSTANT HEAD =           0.0000         CONSTANT HEAD =           0.0000
       RIVER LEAKAGE =  1203024768.0000         RIVER LEAKAGE =      384732.9375
            RECHARGE =     7255975.5000              RECHARGE =        1974.7815

            TOTAL IN =  1489594752.0000              TOTAL IN =     1146083.7500

          OUT:                                     OUT:
          ----                                     ----
             STORAGE =  1464093568.0000               STORAGE =      952171.0625
       CONSTANT HEAD =           0.0000         CONSTANT HEAD =           0.0000
       RIVER LEAKAGE =    25950566.0000         RIVER LEAKAGE =      193672.4531
            RECHARGE =           0.0000              RECHARGE =           0.0000

           TOTAL OUT =  1490044160.0000             TOTAL OUT =     1145843.5000

            IN - OUT =     -449408.0000              IN - OUT =         240.2500

 PERCENT DISCREPANCY =          -0.03     PERCENT DISCREPANCY =           0.02






         TIME SUMMARY AT END OF TIME STEP  333 IN STRESS PERIOD    1
                    SECONDS     MINUTES      HOURS       DAYS        YEARS
                    -----------------------------------------------------------
   TIME STEP LENGTH  86400.      1440.0      24.000      1.0000     2.73785E-03
 STRESS PERIOD TIME 2.87712E+07 4.79520E+05  7992.0      333.00     0.91170    
         TOTAL TIME 2.87712E+07 4.79520E+05  7992.0      333.00     0.91170    
1
 
 SOLVING FOR HEAD 
                                                   Max.-Head-Change                        Max.-Flux-Residual
  Residual-Control   Outer-Iter.   Inner-Iter.     Column Row Layer    Max.-Head-Change    Column Row Layer    Max.-Flux-Residual            L2-New               L2-Old           Solver-Max-Delh
          0                 1           2            59   48     1       0.2626115029E+00      36   86    1       0.3145673129E+05      0.9403879320E+05      0.4857694619E+03      0.2626115029E+00
          0                 2           2            26   78     1       0.4353866189E-01      36   86    1      -0.3145705271E+04      0.9403905838E+04      0.9403879320E+05      0.4353866189E-01

    ------------------------------------------------
       NWT REQUIRED            2 OUTER ITERATIONS 
       AND A TOTAL OF          4 INNER ITERATIONS.
    ------------------------------------------------

 OUTPUT CONTROL FOR STRESS PERIOD    1   TIME STEP  334
    SAVE HEAD FOR ALL LAYERS
    SAVE DRAWDOWN FOR ALL LAYERS
    SAVE BUDGET
    PRINT BUDGET
 UBDSV1 SAVING "         STORAGE" ON UNIT   9 AT TIME STEP334, STRESS PERIOD   1
 UBDSV2 SAVING "   CONSTANT HEAD" ON UNIT   9 AT TIME STEP334, STRESS PERIOD   1
 UBDSV1 SAVING "FLOW RIGHT FACE " ON UNIT   9 AT TIME STEP334, STRESS PERIOD   1
 UBDSV1 SAVING "FLOW FRONT FACE " ON UNIT   9 AT TIME STEP334, STRESS PERIOD   1
 UBDSV4 SAVING "   RIVER LEAKAGE" ON UNIT   9 AT TIME STEP334, STRESS PERIOD   1
 UBDSV3 SAVING "        RECHARGE" ON UNIT   9 AT TIME STEP334, STRESS PERIOD   1

 HEAD WILL BE SAVED ON UNIT   37 AT END OF TIME STEP  334, STRESS PERIOD    1

 DRAWDOWN WILL BE SAVED ON UNIT   38 AT END OF TIME STEP  334, STRESS PERIOD    1
1
  VOLUMETRIC BUDGET FOR ENTIRE MODEL AT END OF TIME STEP  334, STRESS PERIOD   1
  ------------------------------------------------------------------------------

     CUMULATIVE VOLUMES      L**3       RATES FOR THIS TIME STEP      L**3/T
     ------------------                 ------------------------

           IN:                                      IN:
           ---                                      ---
             STORAGE =   280072736.0000               STORAGE =      758683.6250
       CONSTANT HEAD =           0.0000         CONSTANT HEAD =           0.0000
       RIVER LEAKAGE =  1203411328.0000         RIVER LEAKAGE =      386558.1875
            RECHARGE =     7257231.0000              RECHARGE =        1255.5663

            TOTAL IN =  1490741248.0000              TOTAL IN =     1146497.3750

          OUT:                                     OUT:
          ----                                     ----
             STORAGE =  1465046784.0000               STORAGE =      953154.6875
       CONSTANT HEAD =           0.0000         CONSTANT HEAD =           0.0000
       RIVER LEAKAGE =    26144878.0000         RIVER LEAKAGE =      194312.2812
            RECHARGE =           0.0000              RECHARGE =           0.0000

           TOTAL OUT =  1491191680.0000             TOTAL OUT =     1147467.0000

            IN - OUT =     -450432.0000              IN - OUT =        -969.6250

 PERCENT DISCREPANCY =          -0.03     PERCENT DISCREPANCY =          -0.08






         TIME SUMMARY AT END OF TIME STEP  334 IN STRESS PERIOD    1
                    SECONDS     MINUTES      HOURS       DAYS        YEARS
                    -----------------------------------------------------------
   TIME STEP LENGTH  86400.      1440.0      24.000      1.0000     2.73785E-03
 STRESS PERIOD TIME 2.88576E+07 4.80960E+05  8016.0      334.00     0.91444    
         TOTAL TIME 2.88576E+07 4.80960E+05  8016.0      334.00     0.91444    
1
 
 SOLVING FOR HEAD 
                                                   Max.-Head-Change                        Max.-Flux-Residual
  Residual-Control   Outer-Iter.   Inner-Iter.     Column Row Layer    Max.-Head-Change    Column Row Layer    Max.-Flux-Residual            L2-New               L2-Old           Solver-Max-Delh
          0                 1           2            59   48     1       0.2612797990E+00      36   86    1       0.3143062071E+05      0.9435566040E+05      0.4702782694E+03      0.2612797990E+00
          0                 2           2            26   78     1       0.4348346498E-01      36   86    1      -0.3143094087E+04      0.9436441194E+04      0.9435566040E+05      0.4348346498E-01

    ------------------------------------------------
       NWT REQUIRED            2 OUTER ITERATIONS 
       AND A TOTAL OF          4 INNER ITERATIONS.
    ------------------------------------------------

 OUTPUT CONTROL FOR STRESS PERIOD    1   TIME STEP  335
    SAVE HEAD FOR ALL LAYERS
    SAVE DRAWDOWN FOR ALL LAYERS
    SAVE BUDGET
    PRINT BUDGET
 UBDSV1 SAVING "         STORAGE" ON UNIT   9 AT TIME STEP335, STRESS PERIOD   1
 UBDSV2 SAVING "   CONSTANT HEAD" ON UNIT   9 AT TIME STEP335, STRESS PERIOD   1
 UBDSV1 SAVING "FLOW RIGHT FACE " ON UNIT   9 AT TIME STEP335, STRESS PERIOD   1
 UBDSV1 SAVING "FLOW FRONT FACE " ON UNIT   9 AT TIME STEP335, STRESS PERIOD   1
 UBDSV4 SAVING "   RIVER LEAKAGE" ON UNIT   9 AT TIME STEP335, STRESS PERIOD   1
 UBDSV3 SAVING "        RECHARGE" ON UNIT   9 AT TIME STEP335, STRESS PERIOD   1

 HEAD WILL BE SAVED ON UNIT   37 AT END OF TIME STEP  335, STRESS PERIOD    1

 DRAWDOWN WILL BE SAVED ON UNIT   38 AT END OF TIME STEP  335, STRESS PERIOD    1
1
  VOLUMETRIC BUDGET FOR ENTIRE MODEL AT END OF TIME STEP  335, STRESS PERIOD   1
  ------------------------------------------------------------------------------

     CUMULATIVE VOLUMES      L**3       RATES FOR THIS TIME STEP      L**3/T
     ------------------                 ------------------------

           IN:                                      IN:
           ---                                      ---
             STORAGE =   280830208.0000               STORAGE =      757484.8750
       CONSTANT HEAD =           0.0000         CONSTANT HEAD =           0.0000
       RIVER LEAKAGE =  1203802240.0000         RIVER LEAKAGE =      390884.5938
            RECHARGE =     7258223.0000              RECHARGE =         991.8353

            TOTAL IN =  1491890688.0000              TOTAL IN =     1149361.2500

          OUT:                                     OUT:
          ----                                     ----
             STORAGE =  1466002944.0000               STORAGE =      956170.8750
       CONSTANT HEAD =           0.0000         CONSTANT HEAD =           0.0000
       RIVER LEAKAGE =    26339314.0000         RIVER LEAKAGE =      194435.5625
            RECHARGE =           0.0000              RECHARGE =           0.0000

           TOTAL OUT =  1492342272.0000             TOTAL OUT =     1150606.5000

            IN - OUT =     -451584.0000              IN - OUT =       -1245.2500

 PERCENT DISCREPANCY =          -0.03     PERCENT DISCREPANCY =          -0.11






         TIME SUMMARY AT END OF TIME STEP  335 IN STRESS PERIOD    1
                    SECONDS     MINUTES      HOURS       DAYS        YEARS
                    -----------------------------------------------------------
   TIME STEP LENGTH  86400.      1440.0      24.000      1.0000     2.73785E-03
 STRESS PERIOD TIME 2.89440E+07 4.82400E+05  8040.0      335.00     0.91718    
         TOTAL TIME 2.89440E+07 4.82400E+05  8040.0      335.00     0.91718    
1
 
 SOLVING FOR HEAD 
                                                   Max.-Head-Change                        Max.-Flux-Residual
  Residual-Control   Outer-Iter.   Inner-Iter.     Column Row Layer    Max.-Head-Change    Column Row Layer    Max.-Flux-Residual            L2-New               L2-Old           Solver-Max-Delh
          0                 1           2            59   48     1       0.2602168393E+00      36   86    1       0.3140451351E+05      0.9592459227E+05      0.4719065909E+03      0.2602168393E+00
          0                 2           2            26   78     1       0.4342839184E-01      36   86    1      -0.3140483135E+04      0.9592482997E+04      0.9592459227E+05      0.4342839184E-01

    ------------------------------------------------
       NWT REQUIRED            2 OUTER ITERATIONS 
       AND A TOTAL OF          4 INNER ITERATIONS.
    ------------------------------------------------

 OUTPUT CONTROL FOR STRESS PERIOD    1   TIME STEP  336
    SAVE HEAD FOR ALL LAYERS
    SAVE DRAWDOWN FOR ALL LAYERS
    SAVE BUDGET
    PRINT BUDGET
 UBDSV1 SAVING "         STORAGE" ON UNIT   9 AT TIME STEP336, STRESS PERIOD   1
 UBDSV2 SAVING "   CONSTANT HEAD" ON UNIT   9 AT TIME STEP336, STRESS PERIOD   1
 UBDSV1 SAVING "FLOW RIGHT FACE " ON UNIT   9 AT TIME STEP336, STRESS PERIOD   1
 UBDSV1 SAVING "FLOW FRONT FACE " ON UNIT   9 AT TIME STEP336, STRESS PERIOD   1
 UBDSV4 SAVING "   RIVER LEAKAGE" ON UNIT   9 AT TIME STEP336, STRESS PERIOD   1
 UBDSV3 SAVING "        RECHARGE" ON UNIT   9 AT TIME STEP336, STRESS PERIOD   1

 HEAD WILL BE SAVED ON UNIT   37 AT END OF TIME STEP  336, STRESS PERIOD    1

 DRAWDOWN WILL BE SAVED ON UNIT   38 AT END OF TIME STEP  336, STRESS PERIOD    1
1
  VOLUMETRIC BUDGET FOR ENTIRE MODEL AT END OF TIME STEP  336, STRESS PERIOD   1
  ------------------------------------------------------------------------------

     CUMULATIVE VOLUMES      L**3       RATES FOR THIS TIME STEP      L**3/T
     ------------------                 ------------------------

           IN:                                      IN:
           ---                                      ---
             STORAGE =   281585216.0000               STORAGE =      755010.3125
       CONSTANT HEAD =           0.0000         CONSTANT HEAD =           0.0000
       RIVER LEAKAGE =  1204204416.0000         RIVER LEAKAGE =      402180.5000
            RECHARGE =     7259084.5000              RECHARGE =         861.5694

            TOTAL IN =  1493048832.0000              TOTAL IN =     1158052.3750

          OUT:                                     OUT:
          ----                                     ----
             STORAGE =  1466968064.0000               STORAGE =      965160.0000
       CONSTANT HEAD =           0.0000         CONSTANT HEAD =           0.0000
       RIVER LEAKAGE =    26533992.0000         RIVER LEAKAGE =      194678.8281
            RECHARGE =           0.0000              RECHARGE =           0.0000

           TOTAL OUT =  1493502080.0000             TOTAL OUT =     1159838.8750

            IN - OUT =     -453248.0000              IN - OUT =       -1786.5000

 PERCENT DISCREPANCY =          -0.03     PERCENT DISCREPANCY =          -0.15






         TIME SUMMARY AT END OF TIME STEP  336 IN STRESS PERIOD    1
                    SECONDS     MINUTES      HOURS       DAYS        YEARS
                    -----------------------------------------------------------
   TIME STEP LENGTH  86400.      1440.0      24.000      1.0000     2.73785E-03
 STRESS PERIOD TIME 2.90304E+07 4.83840E+05  8064.0      336.00     0.91992    
         TOTAL TIME 2.90304E+07 4.83840E+05  8064.0      336.00     0.91992    
1
 
 SOLVING FOR HEAD 
                                                   Max.-Head-Change                        Max.-Flux-Residual
  Residual-Control   Outer-Iter.   Inner-Iter.     Column Row Layer    Max.-Head-Change    Column Row Layer    Max.-Flux-Residual            L2-New               L2-Old           Solver-Max-Delh
          0                 1           2            59   48     1       0.2591525351E+00      36   86    1       0.3137847387E+05      0.9477817780E+05      0.4797050751E+03      0.2591525351E+00
          0                 2           2            26   78     1       0.4337344222E-01      36   86    1      -0.3137879209E+04      0.9477843171E+04      0.9477817780E+05      0.4337344222E-01

    ------------------------------------------------
       NWT REQUIRED            2 OUTER ITERATIONS 
       AND A TOTAL OF          4 INNER ITERATIONS.
    ------------------------------------------------

 OUTPUT CONTROL FOR STRESS PERIOD    1   TIME STEP  337
    SAVE HEAD FOR ALL LAYERS
    SAVE DRAWDOWN FOR ALL LAYERS
    SAVE BUDGET
    PRINT BUDGET
 UBDSV1 SAVING "         STORAGE" ON UNIT   9 AT TIME STEP337, STRESS PERIOD   1
 UBDSV2 SAVING "   CONSTANT HEAD" ON UNIT   9 AT TIME STEP337, STRESS PERIOD   1
 UBDSV1 SAVING "FLOW RIGHT FACE " ON UNIT   9 AT TIME STEP337, STRESS PERIOD   1
 UBDSV1 SAVING "FLOW FRONT FACE " ON UNIT   9 AT TIME STEP337, STRESS PERIOD   1
 UBDSV4 SAVING "   RIVER LEAKAGE" ON UNIT   9 AT TIME STEP337, STRESS PERIOD   1
 UBDSV3 SAVING "        RECHARGE" ON UNIT   9 AT TIME STEP337, STRESS PERIOD   1

 HEAD WILL BE SAVED ON UNIT   37 AT END OF TIME STEP  337, STRESS PERIOD    1

 DRAWDOWN WILL BE SAVED ON UNIT   38 AT END OF TIME STEP  337, STRESS PERIOD    1
1
  VOLUMETRIC BUDGET FOR ENTIRE MODEL AT END OF TIME STEP  337, STRESS PERIOD   1
  ------------------------------------------------------------------------------

     CUMULATIVE VOLUMES      L**3       RATES FOR THIS TIME STEP      L**3/T
     ------------------                 ------------------------

           IN:                                      IN:
           ---                                      ---
             STORAGE =   282340992.0000               STORAGE =      755789.9375
       CONSTANT HEAD =           0.0000         CONSTANT HEAD =           0.0000
       RIVER LEAKAGE =  1204598912.0000         RIVER LEAKAGE =      394553.2500
            RECHARGE =     7259857.5000              RECHARGE =         772.8173

            TOTAL IN =  1494199808.0000              TOTAL IN =     1151116.0000

          OUT:                                     OUT:
          ----                                     ----
             STORAGE =  1467925760.0000               STORAGE =      957632.6250
       CONSTANT HEAD =           0.0000         CONSTANT HEAD =           0.0000
       RIVER LEAKAGE =    26727952.0000         RIVER LEAKAGE =      193959.8281
            RECHARGE =           0.0000              RECHARGE =           0.0000

           TOTAL OUT =  1494653696.0000             TOTAL OUT =     1151592.5000

            IN - OUT =     -453888.0000              IN - OUT =        -476.5000

 PERCENT DISCREPANCY =          -0.03     PERCENT DISCREPANCY =          -0.04






         TIME SUMMARY AT END OF TIME STEP  337 IN STRESS PERIOD    1
                    SECONDS     MINUTES      HOURS       DAYS        YEARS
                    -----------------------------------------------------------
   TIME STEP LENGTH  86400.      1440.0      24.000      1.0000     2.73785E-03
 STRESS PERIOD TIME 2.91168E+07 4.85280E+05  8088.0      337.00     0.92266    
         TOTAL TIME 2.91168E+07 4.85280E+05  8088.0      337.00     0.92266    
1
 
 SOLVING FOR HEAD 
                                                   Max.-Head-Change                        Max.-Flux-Residual
  Residual-Control   Outer-Iter.   Inner-Iter.     Column Row Layer    Max.-Head-Change    Column Row Layer    Max.-Flux-Residual            L2-New               L2-Old           Solver-Max-Delh
          0                 1           2            59   48     1       0.2580882436E+00      36   86    1       0.3135238839E+05      0.1082759110E+06      0.4739738779E+03      0.2580882436E+00
          0                 2           2            29  111     1       0.2867799983E+01      36   86    1      -0.3135270034E+04      0.1086268681E+05      0.1082759110E+06      0.2867799983E+01
          1                 2           0            29  111     1       0.2007459954E+01      29  111    1      -0.3368683744E+06      0.3368689181E+06      0.1086268681E+05      0.2867799983E+01
          2                 2           0            29  111     1       0.1405221944E+01      29  111    1      -0.2319260450E+06      0.2319543548E+06      0.3368689181E+06      0.2867799983E+01
          3                 2           0            29  111     1       0.9836553439E+00      29  111    1      -0.1584664158E+06      0.1585719364E+06      0.2319543548E+06      0.2867799983E+01
          4                 2           0            29  111     1       0.6885587290E+00      29  111    1      -0.1070446762E+06      0.1072930341E+06      0.1585719364E+06      0.2867799983E+01
          5                 2           0            29  111     1       0.4819911021E+00      29  111    1      -0.7104945917E+05      0.7153896842E+05      0.1072930341E+06      0.2867799983E+01
          6                 2           0            29  111     1       0.3373937657E+00      29  111    1      -0.4585280766E+05      0.4674620587E+05      0.7153896842E+05      0.2867799983E+01
          7                 2           0            29  111     1       0.2361756320E+00      29  111    1      -0.2821515191E+05      0.2980816195E+05      0.4674620587E+05      0.2867799983E+01
          8                 2           0            29  111     1       0.1653229396E+00      29  111    1      -0.1586879310E+05      0.1874468441E+05      0.2980816195E+05      0.2867799983E+01
                                                   Max.-Head-Change                        Max.-Flux-Residual
  Residual-Control   Outer-Iter.   Inner-Iter.     Column Row Layer    Max.-Head-Change    Column Row Layer    Max.-Flux-Residual            L2-New               L2-Old           Solver-Max-Delh
          9                 2           0            29  111     1       0.1157260557E+00      29  111    1      -0.7226342079E+04      0.1252599281E+05      0.1874468441E+05      0.2867799983E+01
          0                 3           2            26   78     1       0.4332033082E-01      36   86    1      -0.3015076568E+04      0.1047553829E+05      0.1252599281E+05      0.4332033082E-01
          0                 4           2            26   78     1       0.4330497148E-01      42   48    1      -0.3201336818E+03      0.6138376750E+03      0.1047553829E+05      0.4330497148E-01

    ------------------------------------------------
       NWT REQUIRED            4 OUTER ITERATIONS 
       AND A TOTAL OF          8 INNER ITERATIONS.
    ------------------------------------------------

 OUTPUT CONTROL FOR STRESS PERIOD    1   TIME STEP  338
    SAVE HEAD FOR ALL LAYERS
    SAVE DRAWDOWN FOR ALL LAYERS
    SAVE BUDGET
    PRINT BUDGET
 UBDSV1 SAVING "         STORAGE" ON UNIT   9 AT TIME STEP338, STRESS PERIOD   1
 UBDSV2 SAVING "   CONSTANT HEAD" ON UNIT   9 AT TIME STEP338, STRESS PERIOD   1
 UBDSV1 SAVING "FLOW RIGHT FACE " ON UNIT   9 AT TIME STEP338, STRESS PERIOD   1
 UBDSV1 SAVING "FLOW FRONT FACE " ON UNIT   9 AT TIME STEP338, STRESS PERIOD   1
 UBDSV4 SAVING "   RIVER LEAKAGE" ON UNIT   9 AT TIME STEP338, STRESS PERIOD   1
 UBDSV3 SAVING "        RECHARGE" ON UNIT   9 AT TIME STEP338, STRESS PERIOD   1

 HEAD WILL BE SAVED ON UNIT   37 AT END OF TIME STEP  338, STRESS PERIOD    1

 DRAWDOWN WILL BE SAVED ON UNIT   38 AT END OF TIME STEP  338, STRESS PERIOD    1
1
  VOLUMETRIC BUDGET FOR ENTIRE MODEL AT END OF TIME STEP  338, STRESS PERIOD   1
  ------------------------------------------------------------------------------

     CUMULATIVE VOLUMES      L**3       RATES FOR THIS TIME STEP      L**3/T
     ------------------                 ------------------------

           IN:                                      IN:
           ---                                      ---
             STORAGE =   283087104.0000               STORAGE =      746106.1875
       CONSTANT HEAD =           0.0000         CONSTANT HEAD =           0.0000
       RIVER LEAKAGE =  1205048960.0000         RIVER LEAKAGE =      450010.5625
            RECHARGE =     7260558.5000              RECHARGE =         700.8237

            TOTAL IN =  1495396608.0000              TOTAL IN =     1196817.5000

          OUT:                                     OUT:
          ----                                     ----
             STORAGE =  1468929024.0000               STORAGE =     1003244.6250
       CONSTANT HEAD =           0.0000         CONSTANT HEAD =           0.0000
       RIVER LEAKAGE =    26921672.0000         RIVER LEAKAGE =      193720.2188
            RECHARGE =           0.0000              RECHARGE =           0.0000

           TOTAL OUT =  1495850752.0000             TOTAL OUT =     1196964.8750

            IN - OUT =     -454144.0000              IN - OUT =        -147.3750

 PERCENT DISCREPANCY =          -0.03     PERCENT DISCREPANCY =          -0.01






         TIME SUMMARY AT END OF TIME STEP  338 IN STRESS PERIOD    1
                    SECONDS     MINUTES      HOURS       DAYS        YEARS
                    -----------------------------------------------------------
   TIME STEP LENGTH  86400.      1440.0      24.000      1.0000     2.73785E-03
 STRESS PERIOD TIME 2.92032E+07 4.86720E+05  8112.0      338.00     0.92539    
         TOTAL TIME 2.92032E+07 4.86720E+05  8112.0      338.00     0.92539    
1
 
 SOLVING FOR HEAD 
                                                   Max.-Head-Change                        Max.-Flux-Residual
  Residual-Control   Outer-Iter.   Inner-Iter.     Column Row Layer    Max.-Head-Change    Column Row Layer    Max.-Flux-Residual            L2-New               L2-Old           Solver-Max-Delh
          0                 1           2            59   48     1       0.2569153422E+00      36   86    1       0.3132666548E+05      0.1083279022E+06      0.3191868948E+02      0.2569153422E+00
          0                 2           2            29  111     1      -0.1012930038E+01      36   86    1      -0.3132698301E+04      0.1083693477E+05      0.1083279022E+06     -0.1012930038E+01
          1                 2           0            29  111     1      -0.7090510146E+00      29  111    1       0.9170124692E+06      0.9170126579E+06      0.1083693477E+05     -0.1012930038E+01
          2                 2           0            29  111     1      -0.4963357018E+00      29  111    1       0.6128923447E+06      0.6129030364E+06      0.9170126579E+06     -0.1012930038E+01
          3                 2           0            29  111     1      -0.3474349853E+00      29  111    1       0.4000055124E+06      0.4000473038E+06      0.6129030364E+06     -0.1012930038E+01
          4                 2           0            29  111     1      -0.2432044856E+00      29  111    1       0.2509833853E+06      0.2510894487E+06      0.4000473038E+06     -0.1012930038E+01
          5                 2           0            29  111     1      -0.1702431370E+00      29  111    1       0.1466672382E+06      0.1469052031E+06      0.2510894487E+06     -0.1012930038E+01
          6                 2           0            29  111     1      -0.1191701939E+00      29  111    1       0.7364561299E+05      0.7420581772E+05      0.1469052031E+06     -0.1012930038E+01
          7                 2           0            29  111     1      -0.8341913429E-01      29  111    1       0.2253031778E+05      0.2449850019E+05      0.7420581772E+05     -0.1012930038E+01
          0                 3           2            29  111     1      -0.9211689254E+00      36   86    1      -0.2887606709E+04      0.9988884439E+04      0.2449850019E+05     -0.9211689254E+00
                                                   Max.-Head-Change                        Max.-Flux-Residual
  Residual-Control   Outer-Iter.   Inner-Iter.     Column Row Layer    Max.-Head-Change    Column Row Layer    Max.-Flux-Residual            L2-New               L2-Old           Solver-Max-Delh
          1                 3           0            29  111     1      -0.6448182368E+00      29  111    1       0.9086639363E+06      0.9086641024E+06      0.9988884439E+04     -0.9211689254E+00
          2                 3           0            29  111     1      -0.4513727581E+00      29  111    1       0.6320940622E+06      0.6321028682E+06      0.9086641024E+06     -0.9211689254E+00
          3                 3           0            29  111     1      -0.3159609253E+00      29  111    1       0.4384928803E+06      0.4385252595E+06      0.6321028682E+06     -0.9211689254E+00
          4                 3           0            29  111     1      -0.2211726439E+00      29  111    1       0.3029709414E+06      0.3030455723E+06      0.4385252595E+06     -0.9211689254E+00
          5                 3           0            29  111     1      -0.1548208481E+00      29  111    1       0.2081050398E+06      0.2082475494E+06      0.3030455723E+06     -0.9211689254E+00
          6                 3           0            29  111     1      -0.1083745918E+00      29  111    1       0.1416986425E+06      0.1419466576E+06      0.2082475494E+06     -0.9211689254E+00
          7                 3           0            29  111     1      -0.7586221299E-01      29  111    1       0.9521403402E+05      0.9562598405E+05      0.1419466576E+06     -0.9211689254E+00
          8                 3           0            29  111     1      -0.5310354819E-01      29  111    1       0.6267474445E+05      0.6334667704E+05      0.9562598405E+05     -0.9211689254E+00
          9                 3           0            29  111     1      -0.3717248310E-01      29  111    1       0.3989721067E+05      0.4099807715E+05      0.6334667704E+05     -0.9211689254E+00
         10                 3           0            29  111     1      -0.2602073772E-01      29  111    1       0.2395292188E+05      0.2580556096E+05      0.4099807715E+05     -0.9211689254E+00
                                                   Max.-Head-Change                        Max.-Flux-Residual
  Residual-Control   Outer-Iter.   Inner-Iter.     Column Row Layer    Max.-Head-Change    Column Row Layer    Max.-Flux-Residual            L2-New               L2-Old           Solver-Max-Delh
         11                 3           0            29  111     1      -0.1821451610E-01      29  111    1       0.1279191236E+05      0.1606363723E+05      0.2580556096E+05     -0.9211689254E+00
         12                 3           0            29  111     1      -0.1275016105E-01      29  111    1       0.4979202128E+04      0.1098961704E+05      0.1606363723E+05     -0.9211689254E+00
          0                 4           2            29  111     1      -0.9071437387E+00      36   86    1      -0.2849636531E+04      0.9857505752E+04      0.1098961704E+05     -0.9071437387E+00
          1                 4           0            29  111     1      -0.6350006063E+00      29  111    1       0.9073879085E+06      0.9073880712E+06      0.9857505752E+04     -0.9071437387E+00
          2                 4           0            29  111     1      -0.4445004168E+00      29  111    1       0.6350289391E+06      0.6350374747E+06      0.9073880712E+06     -0.9071437387E+00
          3                 4           0            29  111     1      -0.3111502865E+00      29  111    1       0.4443754590E+06      0.4444065724E+06      0.6350374747E+06     -0.9071437387E+00
          4                 4           0            29  111     1      -0.2178051968E+00      29  111    1       0.3109169449E+06      0.3109877642E+06      0.4444065724E+06     -0.9071437387E+00
          5                 4           0            29  111     1      -0.1524636352E+00      29  111    1       0.2174954573E+06      0.2176282477E+06      0.3109877642E+06     -0.9071437387E+00
          6                 4           0            29  111     1      -0.1067245428E+00      29  111    1       0.1521001577E+06      0.1523251919E+06      0.2176282477E+06     -0.9071437387E+00
          7                 4           0            29  111     1      -0.7470717869E-01      29  111    1       0.1063233216E+06      0.1066827387E+06      0.1523251919E+06     -0.9071437387E+00
                                                   Max.-Head-Change                        Max.-Flux-Residual
  Residual-Control   Outer-Iter.   Inner-Iter.     Column Row Layer    Max.-Head-Change    Column Row Layer    Max.-Flux-Residual            L2-New               L2-Old           Solver-Max-Delh
          8                 4           0            29  111     1      -0.5229502420E-01      29  111    1       0.7427947468E+05      0.7483248707E+05      0.1066827387E+06     -0.9071437387E+00
          9                 4           0            29  111     1      -0.3660651631E-01      29  111    1       0.5184875168E+05      0.5267842355E+05      0.7483248707E+05     -0.9071437387E+00
         10                 4           0            29  111     1      -0.2562456098E-01      29  111    1       0.3614723089E+05      0.3736834596E+05      0.5267842355E+05     -0.9071437387E+00
         11                 4           0            29  111     1      -0.1793719238E-01      29  111    1       0.2515615920E+05      0.2692151702E+05      0.3736834596E+05     -0.9071437387E+00
         12                 4           0            29  111     1      -0.1255603445E-01      29  111    1       0.1746240556E+05      0.1996001077E+05      0.2692151702E+05     -0.9071437387E+00
         13                 4           0            29  111     1      -0.8789223968E-02      29  111    1       0.1207677634E+05      0.1550464310E+05      0.1996001077E+05     -0.9071437387E+00
         14                 4           0            29  111     1      -0.6152456673E-02      29  111    1       0.8306835089E+04      0.1281826566E+05      0.1550464310E+05     -0.9071437387E+00
         15                 4           0            29  111     1      -0.4306719598E-02      29  111    1       0.5667875837E+04      0.1131204426E+05      0.1281826566E+05     -0.9071437387E+00
          0                 5           2            26   78     1       0.4324802084E-01      29  111    1       0.3820604184E+04      0.1052656653E+05      0.1131204426E+05      0.4324802084E-01
          0                 6           2            26   78     1       0.4323269526E-01      29  111    1       0.1910298475E+03      0.5261273554E+03      0.1052656653E+05      0.4323269526E-01

    ------------------------------------------------
       NWT REQUIRED            6 OUTER ITERATIONS 
       AND A TOTAL OF         12 INNER ITERATIONS.
    ------------------------------------------------

 OUTPUT CONTROL FOR STRESS PERIOD    1   TIME STEP  339
    SAVE HEAD FOR ALL LAYERS
    SAVE DRAWDOWN FOR ALL LAYERS
    SAVE BUDGET
    PRINT BUDGET
 UBDSV1 SAVING "         STORAGE" ON UNIT   9 AT TIME STEP339, STRESS PERIOD   1
 UBDSV2 SAVING "   CONSTANT HEAD" ON UNIT   9 AT TIME STEP339, STRESS PERIOD   1
 UBDSV1 SAVING "FLOW RIGHT FACE " ON UNIT   9 AT TIME STEP339, STRESS PERIOD   1
 UBDSV1 SAVING "FLOW FRONT FACE " ON UNIT   9 AT TIME STEP339, STRESS PERIOD   1
 UBDSV4 SAVING "   RIVER LEAKAGE" ON UNIT   9 AT TIME STEP339, STRESS PERIOD   1
 UBDSV3 SAVING "        RECHARGE" ON UNIT   9 AT TIME STEP339, STRESS PERIOD   1

 HEAD WILL BE SAVED ON UNIT   37 AT END OF TIME STEP  339, STRESS PERIOD    1

 DRAWDOWN WILL BE SAVED ON UNIT   38 AT END OF TIME STEP  339, STRESS PERIOD    1
1
  VOLUMETRIC BUDGET FOR ENTIRE MODEL AT END OF TIME STEP  339, STRESS PERIOD   1
  ------------------------------------------------------------------------------

     CUMULATIVE VOLUMES      L**3       RATES FOR THIS TIME STEP      L**3/T
     ------------------                 ------------------------

           IN:                                      IN:
           ---                                      ---
             STORAGE =   283839840.0000               STORAGE =      752732.1875
       CONSTANT HEAD =           0.0000         CONSTANT HEAD =           0.0000
       RIVER LEAKAGE =  1205439744.0000         RIVER LEAKAGE =      390824.9375
            RECHARGE =     7261195.0000              RECHARGE =         636.4686

            TOTAL IN =  1496540800.0000              TOTAL IN =     1144193.6250

          OUT:                                     OUT:
          ----                                     ----
             STORAGE =  1469878400.0000               STORAGE =      949360.8125
       CONSTANT HEAD =           0.0000         CONSTANT HEAD =           0.0000
       RIVER LEAKAGE =    27116386.0000         RIVER LEAKAGE =      194714.7656
            RECHARGE =           0.0000              RECHARGE =           0.0000

           TOTAL OUT =  1496994816.0000             TOTAL OUT =     1144075.6250

            IN - OUT =     -454016.0000              IN - OUT =         118.0000

 PERCENT DISCREPANCY =          -0.03     PERCENT DISCREPANCY =           0.01






         TIME SUMMARY AT END OF TIME STEP  339 IN STRESS PERIOD    1
                    SECONDS     MINUTES      HOURS       DAYS        YEARS
                    -----------------------------------------------------------
   TIME STEP LENGTH  86400.      1440.0      24.000      1.0000     2.73785E-03
 STRESS PERIOD TIME 2.92896E+07 4.88160E+05  8136.0      339.00     0.92813    
         TOTAL TIME 2.92896E+07 4.88160E+05  8136.0      339.00     0.92813    
1
 
 SOLVING FOR HEAD 
                                                   Max.-Head-Change                        Max.-Flux-Residual
  Residual-Control   Outer-Iter.   Inner-Iter.     Column Row Layer    Max.-Head-Change    Column Row Layer    Max.-Flux-Residual            L2-New               L2-Old           Solver-Max-Delh
          0                 1           2            59   48     1       0.2558496534E+00      36   86    1       0.3130065959E+05      0.9467677899E+05      0.2771520684E+02      0.2558496534E+00
          0                 2           2            26   78     1       0.4317759185E-01      36   86    1      -0.3130097574E+04      0.9467687083E+04      0.9467677899E+05      0.4317759185E-01

    ------------------------------------------------
       NWT REQUIRED            2 OUTER ITERATIONS 
       AND A TOTAL OF          4 INNER ITERATIONS.
    ------------------------------------------------

 OUTPUT CONTROL FOR STRESS PERIOD    1   TIME STEP  340
    SAVE HEAD FOR ALL LAYERS
    SAVE DRAWDOWN FOR ALL LAYERS
    SAVE BUDGET
    PRINT BUDGET
 UBDSV1 SAVING "         STORAGE" ON UNIT   9 AT TIME STEP340, STRESS PERIOD   1
 UBDSV2 SAVING "   CONSTANT HEAD" ON UNIT   9 AT TIME STEP340, STRESS PERIOD   1
 UBDSV1 SAVING "FLOW RIGHT FACE " ON UNIT   9 AT TIME STEP340, STRESS PERIOD   1
 UBDSV1 SAVING "FLOW FRONT FACE " ON UNIT   9 AT TIME STEP340, STRESS PERIOD   1
 UBDSV4 SAVING "   RIVER LEAKAGE" ON UNIT   9 AT TIME STEP340, STRESS PERIOD   1
 UBDSV3 SAVING "        RECHARGE" ON UNIT   9 AT TIME STEP340, STRESS PERIOD   1

 HEAD WILL BE SAVED ON UNIT   37 AT END OF TIME STEP  340, STRESS PERIOD    1

 DRAWDOWN WILL BE SAVED ON UNIT   38 AT END OF TIME STEP  340, STRESS PERIOD    1
1
  VOLUMETRIC BUDGET FOR ENTIRE MODEL AT END OF TIME STEP  340, STRESS PERIOD   1
  ------------------------------------------------------------------------------

     CUMULATIVE VOLUMES      L**3       RATES FOR THIS TIME STEP      L**3/T
     ------------------                 ------------------------

           IN:                                      IN:
           ---                                      ---
             STORAGE =   284593856.0000               STORAGE =      754001.1875
       CONSTANT HEAD =           0.0000         CONSTANT HEAD =           0.0000
       RIVER LEAKAGE =  1205837184.0000         RIVER LEAKAGE =      397445.2812
            RECHARGE =     7261774.0000              RECHARGE =         578.7707

            TOTAL IN =  1497692928.0000              TOTAL IN =     1152025.2500

          OUT:                                     OUT:
          ----                                     ----
             STORAGE =  1470837376.0000               STORAGE =      959005.5000
       CONSTANT HEAD =           0.0000         CONSTANT HEAD =           0.0000
       RIVER LEAKAGE =    27310886.0000         RIVER LEAKAGE =      194500.5469
            RECHARGE =           0.0000              RECHARGE =           0.0000

           TOTAL OUT =  1498148224.0000             TOTAL OUT =     1153506.0000

            IN - OUT =     -455296.0000              IN - OUT =       -1480.7500

 PERCENT DISCREPANCY =          -0.03     PERCENT DISCREPANCY =          -0.13






         TIME SUMMARY AT END OF TIME STEP  340 IN STRESS PERIOD    1
                    SECONDS     MINUTES      HOURS       DAYS        YEARS
                    -----------------------------------------------------------
   TIME STEP LENGTH  86400.      1440.0      24.000      1.0000     2.73785E-03
 STRESS PERIOD TIME 2.93760E+07 4.89600E+05  8160.0      340.00     0.93087    
         TOTAL TIME 2.93760E+07 4.89600E+05  8160.0      340.00     0.93087    
1
 
 SOLVING FOR HEAD 
                                                   Max.-Head-Change                        Max.-Flux-Residual
  Residual-Control   Outer-Iter.   Inner-Iter.     Column Row Layer    Max.-Head-Change    Column Row Layer    Max.-Flux-Residual            L2-New               L2-Old           Solver-Max-Delh
          0                 1           2            59   48     1       0.2546284922E+00      36   86    1       0.3127457423E+05      0.9404063639E+05      0.4737788190E+03      0.2546284922E+00
          0                 2           2            26   78     1       0.4312256923E-01      36   86    1      -0.3127488988E+04      0.9406036872E+04      0.9404063639E+05      0.4312256923E-01
          0                 3           2            26   78     1       0.4310730414E-01      29  111    1       0.1846160314E+03      0.5052238522E+03      0.9406036872E+04      0.4310730414E-01

    ------------------------------------------------
       NWT REQUIRED            3 OUTER ITERATIONS 
       AND A TOTAL OF          6 INNER ITERATIONS.
    ------------------------------------------------

 OUTPUT CONTROL FOR STRESS PERIOD    1   TIME STEP  341
    SAVE HEAD FOR ALL LAYERS
    SAVE DRAWDOWN FOR ALL LAYERS
    SAVE BUDGET
    PRINT BUDGET
 UBDSV1 SAVING "         STORAGE" ON UNIT   9 AT TIME STEP341, STRESS PERIOD   1
 UBDSV2 SAVING "   CONSTANT HEAD" ON UNIT   9 AT TIME STEP341, STRESS PERIOD   1
 UBDSV1 SAVING "FLOW RIGHT FACE " ON UNIT   9 AT TIME STEP341, STRESS PERIOD   1
 UBDSV1 SAVING "FLOW FRONT FACE " ON UNIT   9 AT TIME STEP341, STRESS PERIOD   1
 UBDSV4 SAVING "   RIVER LEAKAGE" ON UNIT   9 AT TIME STEP341, STRESS PERIOD   1
 UBDSV3 SAVING "        RECHARGE" ON UNIT   9 AT TIME STEP341, STRESS PERIOD   1

 HEAD WILL BE SAVED ON UNIT   37 AT END OF TIME STEP  341, STRESS PERIOD    1

 DRAWDOWN WILL BE SAVED ON UNIT   38 AT END OF TIME STEP  341, STRESS PERIOD    1
1
  VOLUMETRIC BUDGET FOR ENTIRE MODEL AT END OF TIME STEP  341, STRESS PERIOD   1
  ------------------------------------------------------------------------------

     CUMULATIVE VOLUMES      L**3       RATES FOR THIS TIME STEP      L**3/T
     ------------------                 ------------------------

           IN:                                      IN:
           ---                                      ---
             STORAGE =   285344000.0000               STORAGE =      750140.4375
       CONSTANT HEAD =           0.0000         CONSTANT HEAD =           0.0000
       RIVER LEAKAGE =  1206233344.0000         RIVER LEAKAGE =      396185.9375
            RECHARGE =     7262300.5000              RECHARGE =         526.6706

            TOTAL IN =  1498839680.0000              TOTAL IN =     1146853.0000

          OUT:                                     OUT:
          ----                                     ----
             STORAGE =  1471789824.0000               STORAGE =      952459.8750
       CONSTANT HEAD =           0.0000         CONSTANT HEAD =           0.0000
       RIVER LEAKAGE =    27505112.0000         RIVER LEAKAGE =      194225.1406
            RECHARGE =           0.0000              RECHARGE =           0.0000

           TOTAL OUT =  1499294976.0000             TOTAL OUT =     1146685.0000

            IN - OUT =     -455296.0000              IN - OUT =         168.0000

 PERCENT DISCREPANCY =          -0.03     PERCENT DISCREPANCY =           0.01






         TIME SUMMARY AT END OF TIME STEP  341 IN STRESS PERIOD    1
                    SECONDS     MINUTES      HOURS       DAYS        YEARS
                    -----------------------------------------------------------
   TIME STEP LENGTH  86400.      1440.0      24.000      1.0000     2.73785E-03
 STRESS PERIOD TIME 2.94624E+07 4.91040E+05  8184.0      341.00     0.93361    
         TOTAL TIME 2.94624E+07 4.91040E+05  8184.0      341.00     0.93361    
1
 
 SOLVING FOR HEAD 
                                                   Max.-Head-Change                        Max.-Flux-Residual
  Residual-Control   Outer-Iter.   Inner-Iter.     Column Row Layer    Max.-Head-Change    Column Row Layer    Max.-Flux-Residual            L2-New               L2-Old           Solver-Max-Delh
          0                 1           2            59   48     1       0.2537048557E+00      36   86    1       0.3124858901E+05      0.9478542611E+05      0.1802754331E+03      0.2537048557E+00
          0                 2           2            26   78     1       0.4305318763E-01      36   86    1      -0.3124890552E+04      0.9496629805E+04      0.9478542611E+05      0.4305318763E-01
          0                 3           2            26   78     1       0.4303795510E-01      29  111    1      -0.5489863343E+03      0.7253025665E+03      0.9496629805E+04      0.4303795510E-01

    ------------------------------------------------
       NWT REQUIRED            3 OUTER ITERATIONS 
       AND A TOTAL OF          6 INNER ITERATIONS.
    ------------------------------------------------

 OUTPUT CONTROL FOR STRESS PERIOD    1   TIME STEP  342
    SAVE HEAD FOR ALL LAYERS
    SAVE DRAWDOWN FOR ALL LAYERS
    SAVE BUDGET
    PRINT BUDGET
 UBDSV1 SAVING "         STORAGE" ON UNIT   9 AT TIME STEP342, STRESS PERIOD   1
 UBDSV2 SAVING "   CONSTANT HEAD" ON UNIT   9 AT TIME STEP342, STRESS PERIOD   1
 UBDSV1 SAVING "FLOW RIGHT FACE " ON UNIT   9 AT TIME STEP342, STRESS PERIOD   1
 UBDSV1 SAVING "FLOW FRONT FACE " ON UNIT   9 AT TIME STEP342, STRESS PERIOD   1
 UBDSV4 SAVING "   RIVER LEAKAGE" ON UNIT   9 AT TIME STEP342, STRESS PERIOD   1
 UBDSV3 SAVING "        RECHARGE" ON UNIT   9 AT TIME STEP342, STRESS PERIOD   1

 HEAD WILL BE SAVED ON UNIT   37 AT END OF TIME STEP  342, STRESS PERIOD    1

 DRAWDOWN WILL BE SAVED ON UNIT   38 AT END OF TIME STEP  342, STRESS PERIOD    1
1
  VOLUMETRIC BUDGET FOR ENTIRE MODEL AT END OF TIME STEP  342, STRESS PERIOD   1
  ------------------------------------------------------------------------------

     CUMULATIVE VOLUMES      L**3       RATES FOR THIS TIME STEP      L**3/T
     ------------------                 ------------------------

           IN:                                      IN:
           ---                                      ---
             STORAGE =   286096416.0000               STORAGE =      752405.8125
       CONSTANT HEAD =           0.0000         CONSTANT HEAD =           0.0000
       RIVER LEAKAGE =  1206614528.0000         RIVER LEAKAGE =      381165.7812
            RECHARGE =     7262780.0000              RECHARGE =         479.6080

            TOTAL IN =  1499973632.0000              TOTAL IN =     1134051.2500

          OUT:                                     OUT:
          ----                                     ----
             STORAGE =  1472729344.0000               STORAGE =      939521.0000
       CONSTANT HEAD =           0.0000         CONSTANT HEAD =           0.0000
       RIVER LEAKAGE =    27699552.0000         RIVER LEAKAGE =      194440.8125
            RECHARGE =           0.0000              RECHARGE =           0.0000

           TOTAL OUT =  1500428928.0000             TOTAL OUT =     1133961.7500

            IN - OUT =     -455296.0000              IN - OUT =          89.5000

 PERCENT DISCREPANCY =          -0.03     PERCENT DISCREPANCY =           0.01






         TIME SUMMARY AT END OF TIME STEP  342 IN STRESS PERIOD    1
                    SECONDS     MINUTES      HOURS       DAYS        YEARS
                    -----------------------------------------------------------
   TIME STEP LENGTH  86400.      1440.0      24.000      1.0000     2.73785E-03
 STRESS PERIOD TIME 2.95488E+07 4.92480E+05  8208.0      342.00     0.93634    
         TOTAL TIME 2.95488E+07 4.92480E+05  8208.0      342.00     0.93634    
1
 
 SOLVING FOR HEAD 
                                                   Max.-Head-Change                        Max.-Flux-Residual
  Residual-Control   Outer-Iter.   Inner-Iter.     Column Row Layer    Max.-Head-Change    Column Row Layer    Max.-Flux-Residual            L2-New               L2-Old           Solver-Max-Delh
          0                 1           2            59   48     1       0.2526354662E+00      36   86    1       0.3122253799E+05      0.9357939360E+05      0.6042939863E+02      0.2526354662E+00
          0                 2           2            26   78     1       0.4298398750E-01      36   86    1      -0.3122285356E+04      0.9357963853E+04      0.9357939360E+05      0.4298398750E-01

    ------------------------------------------------
       NWT REQUIRED            2 OUTER ITERATIONS 
       AND A TOTAL OF          4 INNER ITERATIONS.
    ------------------------------------------------

 OUTPUT CONTROL FOR STRESS PERIOD    1   TIME STEP  343
    SAVE HEAD FOR ALL LAYERS
    SAVE DRAWDOWN FOR ALL LAYERS
    SAVE BUDGET
    PRINT BUDGET
 UBDSV1 SAVING "         STORAGE" ON UNIT   9 AT TIME STEP343, STRESS PERIOD   1
 UBDSV2 SAVING "   CONSTANT HEAD" ON UNIT   9 AT TIME STEP343, STRESS PERIOD   1
 UBDSV1 SAVING "FLOW RIGHT FACE " ON UNIT   9 AT TIME STEP343, STRESS PERIOD   1
 UBDSV1 SAVING "FLOW FRONT FACE " ON UNIT   9 AT TIME STEP343, STRESS PERIOD   1
 UBDSV4 SAVING "   RIVER LEAKAGE" ON UNIT   9 AT TIME STEP343, STRESS PERIOD   1
 UBDSV3 SAVING "        RECHARGE" ON UNIT   9 AT TIME STEP343, STRESS PERIOD   1

 HEAD WILL BE SAVED ON UNIT   37 AT END OF TIME STEP  343, STRESS PERIOD    1

 DRAWDOWN WILL BE SAVED ON UNIT   38 AT END OF TIME STEP  343, STRESS PERIOD    1
1
  VOLUMETRIC BUDGET FOR ENTIRE MODEL AT END OF TIME STEP  343, STRESS PERIOD   1
  ------------------------------------------------------------------------------

     CUMULATIVE VOLUMES      L**3       RATES FOR THIS TIME STEP      L**3/T
     ------------------                 ------------------------

           IN:                                      IN:
           ---                                      ---
             STORAGE =   286851232.0000               STORAGE =      754809.0625
       CONSTANT HEAD =           0.0000         CONSTANT HEAD =           0.0000
       RIVER LEAKAGE =  1206999040.0000         RIVER LEAKAGE =      384551.6250
            RECHARGE =     7263216.5000              RECHARGE =         436.7381

            TOTAL IN =  1501113472.0000              TOTAL IN =     1139797.5000

          OUT:                                     OUT:
          ----                                     ----
             STORAGE =  1473675904.0000               STORAGE =      946497.1250
       CONSTANT HEAD =           0.0000         CONSTANT HEAD =           0.0000
       RIVER LEAKAGE =    27893910.0000         RIVER LEAKAGE =      194358.4219
            RECHARGE =           0.0000              RECHARGE =           0.0000

           TOTAL OUT =  1501569792.0000             TOTAL OUT =     1140855.5000

            IN - OUT =     -456320.0000              IN - OUT =       -1058.0000

 PERCENT DISCREPANCY =          -0.03     PERCENT DISCREPANCY =          -0.09






         TIME SUMMARY AT END OF TIME STEP  343 IN STRESS PERIOD    1
                    SECONDS     MINUTES      HOURS       DAYS        YEARS
                    -----------------------------------------------------------
   TIME STEP LENGTH  86400.      1440.0      24.000      1.0000     2.73785E-03
 STRESS PERIOD TIME 2.96352E+07 4.93920E+05  8232.0      343.00     0.93908    
         TOTAL TIME 2.96352E+07 4.93920E+05  8232.0      343.00     0.93908    
1
 
 SOLVING FOR HEAD 
                                                   Max.-Head-Change                        Max.-Flux-Residual
  Residual-Control   Outer-Iter.   Inner-Iter.     Column Row Layer    Max.-Head-Change    Column Row Layer    Max.-Flux-Residual            L2-New               L2-Old           Solver-Max-Delh
          0                 1           2            59   48     1       0.2514357089E+00      36   86    1       0.3119636996E+05      0.9341022666E+05      0.4679796128E+03      0.2514357089E+00
          0                 2           2            26   78     1       0.4293000886E-01      36   86    1      -0.3119668529E+04      0.9341047557E+04      0.9341022666E+05      0.4293000886E-01

    ------------------------------------------------
       NWT REQUIRED            2 OUTER ITERATIONS 
       AND A TOTAL OF          4 INNER ITERATIONS.
    ------------------------------------------------

 OUTPUT CONTROL FOR STRESS PERIOD    1   TIME STEP  344
    SAVE HEAD FOR ALL LAYERS
    SAVE DRAWDOWN FOR ALL LAYERS
    SAVE BUDGET
    PRINT BUDGET
 UBDSV1 SAVING "         STORAGE" ON UNIT   9 AT TIME STEP344, STRESS PERIOD   1
 UBDSV2 SAVING "   CONSTANT HEAD" ON UNIT   9 AT TIME STEP344, STRESS PERIOD   1
 UBDSV1 SAVING "FLOW RIGHT FACE " ON UNIT   9 AT TIME STEP344, STRESS PERIOD   1
 UBDSV1 SAVING "FLOW FRONT FACE " ON UNIT   9 AT TIME STEP344, STRESS PERIOD   1
 UBDSV4 SAVING "   RIVER LEAKAGE" ON UNIT   9 AT TIME STEP344, STRESS PERIOD   1
 UBDSV3 SAVING "        RECHARGE" ON UNIT   9 AT TIME STEP344, STRESS PERIOD   1

 HEAD WILL BE SAVED ON UNIT   37 AT END OF TIME STEP  344, STRESS PERIOD    1

 DRAWDOWN WILL BE SAVED ON UNIT   38 AT END OF TIME STEP  344, STRESS PERIOD    1
1
  VOLUMETRIC BUDGET FOR ENTIRE MODEL AT END OF TIME STEP  344, STRESS PERIOD   1
  ------------------------------------------------------------------------------

     CUMULATIVE VOLUMES      L**3       RATES FOR THIS TIME STEP      L**3/T
     ------------------                 ------------------------

           IN:                                      IN:
           ---                                      ---
             STORAGE =   287606240.0000               STORAGE =      755017.4375
       CONSTANT HEAD =           0.0000         CONSTANT HEAD =           0.0000
       RIVER LEAKAGE =  1207380096.0000         RIVER LEAKAGE =      381052.8125
            RECHARGE =     7263614.0000              RECHARGE =         397.7089

            TOTAL IN =  1502249984.0000              TOTAL IN =     1136468.0000

          OUT:                                     OUT:
          ----                                     ----
             STORAGE =  1474618880.0000               STORAGE =      943006.9375
       CONSTANT HEAD =           0.0000         CONSTANT HEAD =           0.0000
       RIVER LEAKAGE =    28088096.0000         RIVER LEAKAGE =      194186.8438
            RECHARGE =           0.0000              RECHARGE =           0.0000

           TOTAL OUT =  1502706944.0000             TOTAL OUT =     1137193.7500

            IN - OUT =     -456960.0000              IN - OUT =        -725.7500

 PERCENT DISCREPANCY =          -0.03     PERCENT DISCREPANCY =          -0.06






         TIME SUMMARY AT END OF TIME STEP  344 IN STRESS PERIOD    1
                    SECONDS     MINUTES      HOURS       DAYS        YEARS
                    -----------------------------------------------------------
   TIME STEP LENGTH  86400.      1440.0      24.000      1.0000     2.73785E-03
 STRESS PERIOD TIME 2.97216E+07 4.95360E+05  8256.0      344.00     0.94182    
         TOTAL TIME 2.97216E+07 4.95360E+05  8256.0      344.00     0.94182    
1
 
 SOLVING FOR HEAD 
                                                   Max.-Head-Change                        Max.-Flux-Residual
  Residual-Control   Outer-Iter.   Inner-Iter.     Column Row Layer    Max.-Head-Change    Column Row Layer    Max.-Flux-Residual            L2-New               L2-Old           Solver-Max-Delh
          0                 1           2            59   48     1       0.2503720880E+00      36   86    1       0.3117016271E+05      0.9342566937E+05      0.4671337543E+03      0.2503720880E+00
          0                 2           2            26   78     1       0.4287615039E-01      36   86    1      -0.3117047720E+04      0.9342591439E+04      0.9342566937E+05      0.4287615039E-01

    ------------------------------------------------
       NWT REQUIRED            2 OUTER ITERATIONS 
       AND A TOTAL OF          4 INNER ITERATIONS.
    ------------------------------------------------

 OUTPUT CONTROL FOR STRESS PERIOD    1   TIME STEP  345
    SAVE HEAD FOR ALL LAYERS
    SAVE DRAWDOWN FOR ALL LAYERS
    SAVE BUDGET
    PRINT BUDGET
 UBDSV1 SAVING "         STORAGE" ON UNIT   9 AT TIME STEP345, STRESS PERIOD   1
 UBDSV2 SAVING "   CONSTANT HEAD" ON UNIT   9 AT TIME STEP345, STRESS PERIOD   1
 UBDSV1 SAVING "FLOW RIGHT FACE " ON UNIT   9 AT TIME STEP345, STRESS PERIOD   1
 UBDSV1 SAVING "FLOW FRONT FACE " ON UNIT   9 AT TIME STEP345, STRESS PERIOD   1
 UBDSV4 SAVING "   RIVER LEAKAGE" ON UNIT   9 AT TIME STEP345, STRESS PERIOD   1
 UBDSV3 SAVING "        RECHARGE" ON UNIT   9 AT TIME STEP345, STRESS PERIOD   1

 HEAD WILL BE SAVED ON UNIT   37 AT END OF TIME STEP  345, STRESS PERIOD    1

 DRAWDOWN WILL BE SAVED ON UNIT   38 AT END OF TIME STEP  345, STRESS PERIOD    1
1
  VOLUMETRIC BUDGET FOR ENTIRE MODEL AT END OF TIME STEP  345, STRESS PERIOD   1
  ------------------------------------------------------------------------------

     CUMULATIVE VOLUMES      L**3       RATES FOR THIS TIME STEP      L**3/T
     ------------------                 ------------------------

           IN:                                      IN:
           ---                                      ---
             STORAGE =   288360384.0000               STORAGE =      754128.8750
       CONSTANT HEAD =           0.0000         CONSTANT HEAD =           0.0000
       RIVER LEAKAGE =  1207763840.0000         RIVER LEAKAGE =      383696.0938
            RECHARGE =     7263976.0000              RECHARGE =         362.2100

            TOTAL IN =  1503388160.0000              TOTAL IN =     1138187.2500

          OUT:                                     OUT:
          ----                                     ----
             STORAGE =  1475563776.0000               STORAGE =      944889.4375
       CONSTANT HEAD =           0.0000         CONSTANT HEAD =           0.0000
       RIVER LEAKAGE =    28282450.0000         RIVER LEAKAGE =      194354.0625
            RECHARGE =           0.0000              RECHARGE =           0.0000

           TOTAL OUT =  1503846272.0000             TOTAL OUT =     1139243.5000

            IN - OUT =     -458112.0000              IN - OUT =       -1056.2500

 PERCENT DISCREPANCY =          -0.03     PERCENT DISCREPANCY =          -0.09






         TIME SUMMARY AT END OF TIME STEP  345 IN STRESS PERIOD    1
                    SECONDS     MINUTES      HOURS       DAYS        YEARS
                    -----------------------------------------------------------
   TIME STEP LENGTH  86400.      1440.0      24.000      1.0000     2.73785E-03
 STRESS PERIOD TIME 2.98080E+07 4.96800E+05  8280.0      345.00     0.94456    
         TOTAL TIME 2.98080E+07 4.96800E+05  8280.0      345.00     0.94456    
1
 
 SOLVING FOR HEAD 
                                                   Max.-Head-Change                        Max.-Flux-Residual
  Residual-Control   Outer-Iter.   Inner-Iter.     Column Row Layer    Max.-Head-Change    Column Row Layer    Max.-Flux-Residual            L2-New               L2-Old           Solver-Max-Delh
          0                 1           2            59   48     1       0.2493077913E+00      36   86    1       0.3114396232E+05      0.9529925743E+05      0.4672107396E+03      0.2493077913E+00
          0                 2           2            26   78     1       0.4282241162E-01      36   86    1      -0.3114427465E+04      0.9529949272E+04      0.9529925743E+05      0.4282241162E-01

    ------------------------------------------------
       NWT REQUIRED            2 OUTER ITERATIONS 
       AND A TOTAL OF          4 INNER ITERATIONS.
    ------------------------------------------------

 OUTPUT CONTROL FOR STRESS PERIOD    1   TIME STEP  346
    SAVE HEAD FOR ALL LAYERS
    SAVE DRAWDOWN FOR ALL LAYERS
    SAVE BUDGET
    PRINT BUDGET
 UBDSV1 SAVING "         STORAGE" ON UNIT   9 AT TIME STEP346, STRESS PERIOD   1
 UBDSV2 SAVING "   CONSTANT HEAD" ON UNIT   9 AT TIME STEP346, STRESS PERIOD   1
 UBDSV1 SAVING "FLOW RIGHT FACE " ON UNIT   9 AT TIME STEP346, STRESS PERIOD   1
 UBDSV1 SAVING "FLOW FRONT FACE " ON UNIT   9 AT TIME STEP346, STRESS PERIOD   1
 UBDSV4 SAVING "   RIVER LEAKAGE" ON UNIT   9 AT TIME STEP346, STRESS PERIOD   1
 UBDSV3 SAVING "        RECHARGE" ON UNIT   9 AT TIME STEP346, STRESS PERIOD   1

 HEAD WILL BE SAVED ON UNIT   37 AT END OF TIME STEP  346, STRESS PERIOD    1

 DRAWDOWN WILL BE SAVED ON UNIT   38 AT END OF TIME STEP  346, STRESS PERIOD    1
1
  VOLUMETRIC BUDGET FOR ENTIRE MODEL AT END OF TIME STEP  346, STRESS PERIOD   1
  ------------------------------------------------------------------------------

     CUMULATIVE VOLUMES      L**3       RATES FOR THIS TIME STEP      L**3/T
     ------------------                 ------------------------

           IN:                                      IN:
           ---                                      ---
             STORAGE =   289111968.0000               STORAGE =      751594.3750
       CONSTANT HEAD =           0.0000         CONSTANT HEAD =           0.0000
       RIVER LEAKAGE =  1208165376.0000         RIVER LEAKAGE =      401497.2812
            RECHARGE =     7264306.0000              RECHARGE =         329.8888

            TOTAL IN =  1504541568.0000              TOTAL IN =     1153421.5000

          OUT:                                     OUT:
          ----                                     ----
             STORAGE =  1476524288.0000               STORAGE =      960504.3125
       CONSTANT HEAD =           0.0000         CONSTANT HEAD =           0.0000
       RIVER LEAKAGE =    28477162.0000         RIVER LEAKAGE =      194711.0312
            RECHARGE =           0.0000              RECHARGE =           0.0000

           TOTAL OUT =  1505001472.0000             TOTAL OUT =     1155215.3750

            IN - OUT =     -459904.0000              IN - OUT =       -1793.8750

 PERCENT DISCREPANCY =          -0.03     PERCENT DISCREPANCY =          -0.16






         TIME SUMMARY AT END OF TIME STEP  346 IN STRESS PERIOD    1
                    SECONDS     MINUTES      HOURS       DAYS        YEARS
                    -----------------------------------------------------------
   TIME STEP LENGTH  86400.      1440.0      24.000      1.0000     2.73785E-03
 STRESS PERIOD TIME 2.98944E+07 4.98240E+05  8304.0      346.00     0.94730    
         TOTAL TIME 2.98944E+07 4.98240E+05  8304.0      346.00     0.94730    
1
 
 SOLVING FOR HEAD 
                                                   Max.-Head-Change                        Max.-Flux-Residual
  Residual-Control   Outer-Iter.   Inner-Iter.     Column Row Layer    Max.-Head-Change    Column Row Layer    Max.-Flux-Residual            L2-New               L2-Old           Solver-Max-Delh
          0                 1           2            59   48     1       0.2482434915E+00      36   86    1       0.3111784599E+05      0.9443662856E+05      0.4765768337E+03      0.2482434915E+00
          0                 2           2            26   78     1       0.4276879227E-01      36   86    1      -0.3111815904E+04      0.9443688266E+04      0.9443662856E+05      0.4276879227E-01

    ------------------------------------------------
       NWT REQUIRED            2 OUTER ITERATIONS 
       AND A TOTAL OF          4 INNER ITERATIONS.
    ------------------------------------------------

 OUTPUT CONTROL FOR STRESS PERIOD    1   TIME STEP  347
    SAVE HEAD FOR ALL LAYERS
    SAVE DRAWDOWN FOR ALL LAYERS
    SAVE BUDGET
    PRINT BUDGET
 UBDSV1 SAVING "         STORAGE" ON UNIT   9 AT TIME STEP347, STRESS PERIOD   1
 UBDSV2 SAVING "   CONSTANT HEAD" ON UNIT   9 AT TIME STEP347, STRESS PERIOD   1
 UBDSV1 SAVING "FLOW RIGHT FACE " ON UNIT   9 AT TIME STEP347, STRESS PERIOD   1
 UBDSV1 SAVING "FLOW FRONT FACE " ON UNIT   9 AT TIME STEP347, STRESS PERIOD   1
 UBDSV4 SAVING "   RIVER LEAKAGE" ON UNIT   9 AT TIME STEP347, STRESS PERIOD   1
 UBDSV3 SAVING "        RECHARGE" ON UNIT   9 AT TIME STEP347, STRESS PERIOD   1

 HEAD WILL BE SAVED ON UNIT   37 AT END OF TIME STEP  347, STRESS PERIOD    1

 DRAWDOWN WILL BE SAVED ON UNIT   38 AT END OF TIME STEP  347, STRESS PERIOD    1
1
  VOLUMETRIC BUDGET FOR ENTIRE MODEL AT END OF TIME STEP  347, STRESS PERIOD   1
  ------------------------------------------------------------------------------

     CUMULATIVE VOLUMES      L**3       RATES FOR THIS TIME STEP      L**3/T
     ------------------                 ------------------------

           IN:                                      IN:
           ---                                      ---
             STORAGE =   289865248.0000               STORAGE =      753283.5000
       CONSTANT HEAD =           0.0000         CONSTANT HEAD =           0.0000
       RIVER LEAKAGE =  1208555264.0000         RIVER LEAKAGE =      389929.1250
            RECHARGE =     7264606.5000              RECHARGE =         300.4761

            TOTAL IN =  1505685120.0000              TOTAL IN =     1143513.1250

          OUT:                                     OUT:
          ----                                     ----
             STORAGE =  1477474176.0000               STORAGE =      949866.9375
       CONSTANT HEAD =           0.0000         CONSTANT HEAD =           0.0000
       RIVER LEAKAGE =    28671110.0000         RIVER LEAKAGE =      193948.9844
            RECHARGE =           0.0000              RECHARGE =           0.0000

           TOTAL OUT =  1506145280.0000             TOTAL OUT =     1143815.8750

            IN - OUT =     -460160.0000              IN - OUT =        -302.7500

 PERCENT DISCREPANCY =          -0.03     PERCENT DISCREPANCY =          -0.03






         TIME SUMMARY AT END OF TIME STEP  347 IN STRESS PERIOD    1
                    SECONDS     MINUTES      HOURS       DAYS        YEARS
                    -----------------------------------------------------------
   TIME STEP LENGTH  86400.      1440.0      24.000      1.0000     2.73785E-03
 STRESS PERIOD TIME 2.99808E+07 4.99680E+05  8328.0      347.00     0.95003    
         TOTAL TIME 2.99808E+07 4.99680E+05  8328.0      347.00     0.95003    
1
 
 SOLVING FOR HEAD 
                                                   Max.-Head-Change                        Max.-Flux-Residual
  Residual-Control   Outer-Iter.   Inner-Iter.     Column Row Layer    Max.-Head-Change    Column Row Layer    Max.-Flux-Residual            L2-New               L2-Old           Solver-Max-Delh
          0                 1           2            59   48     1       0.2471791927E+00      36   86    1       0.3109164963E+05      0.9413756650E+05      0.4722643335E+03      0.2471791927E+00
          0                 2           2            26   78     1       0.4271529187E-01      36   86    1      -0.3109196248E+04      0.9413781128E+04      0.9413756650E+05      0.4271529187E-01

    ------------------------------------------------
       NWT REQUIRED            2 OUTER ITERATIONS 
       AND A TOTAL OF          4 INNER ITERATIONS.
    ------------------------------------------------

 OUTPUT CONTROL FOR STRESS PERIOD    1   TIME STEP  348
    SAVE HEAD FOR ALL LAYERS
    SAVE DRAWDOWN FOR ALL LAYERS
    SAVE BUDGET
    PRINT BUDGET
 UBDSV1 SAVING "         STORAGE" ON UNIT   9 AT TIME STEP348, STRESS PERIOD   1
 UBDSV2 SAVING "   CONSTANT HEAD" ON UNIT   9 AT TIME STEP348, STRESS PERIOD   1
 UBDSV1 SAVING "FLOW RIGHT FACE " ON UNIT   9 AT TIME STEP348, STRESS PERIOD   1
 UBDSV1 SAVING "FLOW FRONT FACE " ON UNIT   9 AT TIME STEP348, STRESS PERIOD   1
 UBDSV4 SAVING "   RIVER LEAKAGE" ON UNIT   9 AT TIME STEP348, STRESS PERIOD   1
 UBDSV3 SAVING "        RECHARGE" ON UNIT   9 AT TIME STEP348, STRESS PERIOD   1

 HEAD WILL BE SAVED ON UNIT   37 AT END OF TIME STEP  348, STRESS PERIOD    1

 DRAWDOWN WILL BE SAVED ON UNIT   38 AT END OF TIME STEP  348, STRESS PERIOD    1
1
  VOLUMETRIC BUDGET FOR ENTIRE MODEL AT END OF TIME STEP  348, STRESS PERIOD   1
  ------------------------------------------------------------------------------

     CUMULATIVE VOLUMES      L**3       RATES FOR THIS TIME STEP      L**3/T
     ------------------                 ------------------------

           IN:                                      IN:
           ---                                      ---
             STORAGE =   290618528.0000               STORAGE =      753269.2500
       CONSTANT HEAD =           0.0000         CONSTANT HEAD =           0.0000
       RIVER LEAKAGE =  1208937088.0000         RIVER LEAKAGE =      381812.6250
            RECHARGE =     7264880.0000              RECHARGE =         273.7153

            TOTAL IN =  1506820480.0000              TOTAL IN =     1135355.6250

          OUT:                                     OUT:
          ----                                     ----
             STORAGE =  1478416000.0000               STORAGE =      941820.0000
       CONSTANT HEAD =           0.0000         CONSTANT HEAD =           0.0000
       RIVER LEAKAGE =    28865320.0000         RIVER LEAKAGE =      194209.8125
            RECHARGE =           0.0000              RECHARGE =           0.0000

           TOTAL OUT =  1507281280.0000             TOTAL OUT =     1136029.7500

            IN - OUT =     -460800.0000              IN - OUT =        -674.1250

 PERCENT DISCREPANCY =          -0.03     PERCENT DISCREPANCY =          -0.06






         TIME SUMMARY AT END OF TIME STEP  348 IN STRESS PERIOD    1
                    SECONDS     MINUTES      HOURS       DAYS        YEARS
                    -----------------------------------------------------------
   TIME STEP LENGTH  86400.      1440.0      24.000      1.0000     2.73785E-03
 STRESS PERIOD TIME 3.00672E+07 5.01120E+05  8352.0      348.00     0.95277    
         TOTAL TIME 3.00672E+07 5.01120E+05  8352.0      348.00     0.95277    
1
 
 SOLVING FOR HEAD 
                                                   Max.-Head-Change                        Max.-Flux-Residual
  Residual-Control   Outer-Iter.   Inner-Iter.     Column Row Layer    Max.-Head-Change    Column Row Layer    Max.-Flux-Residual            L2-New               L2-Old           Solver-Max-Delh
          0                 1           2            59   48     1       0.2461148960E+00      36   86    1       0.3106541278E+05      0.1218492088E+06      0.4707690344E+03      0.2461148960E+00
          0                 2           2            35   84     1       0.4235117049E+01      36   86    1      -0.3106571702E+04      0.1219293502E+05      0.1218492088E+06      0.4235117049E+01
          1                 2           0            35   84     1       0.2964581884E+01      35   84    1      -0.5813327843E+06      0.5815060740E+06      0.1219293502E+05      0.4235117049E+01
          2                 2           0            35   84     1       0.2075207283E+01      35   84    1      -0.4024736665E+06      0.4025430395E+06      0.5815060740E+06      0.4235117049E+01
          3                 2           0            35   84     1       0.1452645074E+01      35   84    1      -0.2772722861E+06      0.2773491327E+06      0.4025430395E+06      0.4235117049E+01
          4                 2           0            35   84     1       0.1016851534E+01      35   84    1      -0.1896313211E+06      0.1898078197E+06      0.2773491327E+06      0.4235117049E+01
          5                 2           0            35   84     1       0.7117960618E+00      35   84    1      -0.1282826467E+06      0.1286244674E+06      0.1898078197E+06      0.4235117049E+01
          6                 2           0            35   84     1       0.4982572348E+00      35   84    1      -0.8533857528E+05      0.8594625476E+05      0.1286244674E+06      0.4235117049E+01
          7                 2           0            35   84     1       0.3487800584E+00      35   84    1      -0.5527772580E+05      0.5631984187E+05      0.8594625476E+05      0.4235117049E+01
          8                 2           0            35   84     1       0.2441460367E+00      35   84    1      -0.3423513152E+05      0.3601794970E+05      0.5631984187E+05      0.4235117049E+01
                                                   Max.-Head-Change                        Max.-Flux-Residual
  Residual-Control   Outer-Iter.   Inner-Iter.     Column Row Layer    Max.-Head-Change    Column Row Layer    Max.-Flux-Residual            L2-New               L2-Old           Solver-Max-Delh
          9                 2           0            35   84     1       0.1709022228E+00      35   84    1      -0.1950531577E+05      0.2263114751E+05      0.3601794970E+05      0.4235117049E+01
         10                 2           0            35   84     1       0.1196315539E+00      35   84    1      -0.9194444918E+04      0.1486170138E+05      0.2263114751E+05      0.4235117049E+01
          0                 3           2            29  111     1       0.2094668739E+00      36   86    1      -0.3023206401E+04      0.1198007639E+05      0.1486170138E+05      0.2094668739E+00
          1                 3           0            29  111     1       0.1466268092E+00      29  111    1      -0.1410799890E+05      0.1412069561E+05      0.1198007639E+05      0.2094668739E+00
          0                 4           2            29  111     1      -0.5017956696E-01      29  111    1      -0.6442829264E+04      0.7590401782E+04      0.1412069561E+05     -0.5017956696E-01

    ------------------------------------------------
       NWT REQUIRED            4 OUTER ITERATIONS 
       AND A TOTAL OF          8 INNER ITERATIONS.
    ------------------------------------------------

 OUTPUT CONTROL FOR STRESS PERIOD    1   TIME STEP  349
    SAVE HEAD FOR ALL LAYERS
    SAVE DRAWDOWN FOR ALL LAYERS
    SAVE BUDGET
    PRINT BUDGET
 UBDSV1 SAVING "         STORAGE" ON UNIT   9 AT TIME STEP349, STRESS PERIOD   1
 UBDSV2 SAVING "   CONSTANT HEAD" ON UNIT   9 AT TIME STEP349, STRESS PERIOD   1
 UBDSV1 SAVING "FLOW RIGHT FACE " ON UNIT   9 AT TIME STEP349, STRESS PERIOD   1
 UBDSV1 SAVING "FLOW FRONT FACE " ON UNIT   9 AT TIME STEP349, STRESS PERIOD   1
 UBDSV4 SAVING "   RIVER LEAKAGE" ON UNIT   9 AT TIME STEP349, STRESS PERIOD   1
 UBDSV3 SAVING "        RECHARGE" ON UNIT   9 AT TIME STEP349, STRESS PERIOD   1

 HEAD WILL BE SAVED ON UNIT   37 AT END OF TIME STEP  349, STRESS PERIOD    1

 DRAWDOWN WILL BE SAVED ON UNIT   38 AT END OF TIME STEP  349, STRESS PERIOD    1
1
  VOLUMETRIC BUDGET FOR ENTIRE MODEL AT END OF TIME STEP  349, STRESS PERIOD   1
  ------------------------------------------------------------------------------

     CUMULATIVE VOLUMES      L**3       RATES FOR THIS TIME STEP      L**3/T
     ------------------                 ------------------------

           IN:                                      IN:
           ---                                      ---
             STORAGE =   291360544.0000               STORAGE =      742011.5000
       CONSTANT HEAD =           0.0000         CONSTANT HEAD =           0.0000
       RIVER LEAKAGE =  1209404800.0000         RIVER LEAKAGE =      467735.3750
            RECHARGE =     7265130.0000              RECHARGE =         249.8023

            TOTAL IN =  1508030464.0000              TOTAL IN =     1209996.7500

          OUT:                                     OUT:
          ----                                     ----
             STORAGE =  1479433600.0000               STORAGE =     1017552.6875
       CONSTANT HEAD =           0.0000         CONSTANT HEAD =           0.0000
       RIVER LEAKAGE =    29059614.0000         RIVER LEAKAGE =      194293.6406
            RECHARGE =           0.0000              RECHARGE =           0.0000

           TOTAL OUT =  1508493184.0000             TOTAL OUT =     1211846.3750

            IN - OUT =     -462720.0000              IN - OUT =       -1849.6250

 PERCENT DISCREPANCY =          -0.03     PERCENT DISCREPANCY =          -0.15






         TIME SUMMARY AT END OF TIME STEP  349 IN STRESS PERIOD    1
                    SECONDS     MINUTES      HOURS       DAYS        YEARS
                    -----------------------------------------------------------
   TIME STEP LENGTH  86400.      1440.0      24.000      1.0000     2.73785E-03
 STRESS PERIOD TIME 3.01536E+07 5.02560E+05  8376.0      349.00     0.95551    
         TOTAL TIME 3.01536E+07 5.02560E+05  8376.0      349.00     0.95551    
1
 
 SOLVING FOR HEAD 
                                                   Max.-Head-Change                        Max.-Flux-Residual
  Residual-Control   Outer-Iter.   Inner-Iter.     Column Row Layer    Max.-Head-Change    Column Row Layer    Max.-Flux-Residual            L2-New               L2-Old           Solver-Max-Delh
          0                 1           2            59   48     1       0.2450779427E+00      36   86    1       0.3103962662E+05      0.1023573876E+06      0.3795770771E+03      0.2450779427E+00
          0                 2           2            26   78     1       0.4259847824E-01      36   86    1      -0.3103993426E+04      0.1023576442E+05      0.1023573876E+06      0.4259847824E-01
          0                 3           2            26   78     1       0.4258346949E-01      36   86    1      -0.1551998222E+03      0.5118613802E+03      0.1023576442E+05      0.4258346949E-01

    ------------------------------------------------
       NWT REQUIRED            3 OUTER ITERATIONS 
       AND A TOTAL OF          6 INNER ITERATIONS.
    ------------------------------------------------

 OUTPUT CONTROL FOR STRESS PERIOD    1   TIME STEP  350
    SAVE HEAD FOR ALL LAYERS
    SAVE DRAWDOWN FOR ALL LAYERS
    SAVE BUDGET
    PRINT BUDGET
 UBDSV1 SAVING "         STORAGE" ON UNIT   9 AT TIME STEP350, STRESS PERIOD   1
 UBDSV2 SAVING "   CONSTANT HEAD" ON UNIT   9 AT TIME STEP350, STRESS PERIOD   1
 UBDSV1 SAVING "FLOW RIGHT FACE " ON UNIT   9 AT TIME STEP350, STRESS PERIOD   1
 UBDSV1 SAVING "FLOW FRONT FACE " ON UNIT   9 AT TIME STEP350, STRESS PERIOD   1
 UBDSV4 SAVING "   RIVER LEAKAGE" ON UNIT   9 AT TIME STEP350, STRESS PERIOD   1
 UBDSV3 SAVING "        RECHARGE" ON UNIT   9 AT TIME STEP350, STRESS PERIOD   1

 HEAD WILL BE SAVED ON UNIT   37 AT END OF TIME STEP  350, STRESS PERIOD    1

 DRAWDOWN WILL BE SAVED ON UNIT   38 AT END OF TIME STEP  350, STRESS PERIOD    1
1
  VOLUMETRIC BUDGET FOR ENTIRE MODEL AT END OF TIME STEP  350, STRESS PERIOD   1
  ------------------------------------------------------------------------------

     CUMULATIVE VOLUMES      L**3       RATES FOR THIS TIME STEP      L**3/T
     ------------------                 ------------------------

           IN:                                      IN:
           ---                                      ---
             STORAGE =   292105600.0000               STORAGE =      745064.6250
       CONSTANT HEAD =           0.0000         CONSTANT HEAD =           0.0000
       RIVER LEAKAGE =  1209819904.0000         RIVER LEAKAGE =      415083.4062
            RECHARGE =     7265357.5000              RECHARGE =         227.5162

            TOTAL IN =  1509190912.0000              TOTAL IN =     1160375.5000

          OUT:                                     OUT:
          ----                                     ----
             STORAGE =  1480398336.0000               STORAGE =      964702.5625
       CONSTANT HEAD =           0.0000         CONSTANT HEAD =           0.0000
       RIVER LEAKAGE =    29255220.0000         RIVER LEAKAGE =      195606.0625
            RECHARGE =           0.0000              RECHARGE =           0.0000

           TOTAL OUT =  1509653504.0000             TOTAL OUT =     1160308.6250

            IN - OUT =     -462592.0000              IN - OUT =          66.8750

 PERCENT DISCREPANCY =          -0.03     PERCENT DISCREPANCY =           0.01






         TIME SUMMARY AT END OF TIME STEP  350 IN STRESS PERIOD    1
                    SECONDS     MINUTES      HOURS       DAYS        YEARS
                    -----------------------------------------------------------
   TIME STEP LENGTH  86400.      1440.0      24.000      1.0000     2.73785E-03
 STRESS PERIOD TIME 3.02400E+07 5.04000E+05  8400.0      350.00     0.95825    
         TOTAL TIME 3.02400E+07 5.04000E+05  8400.0      350.00     0.95825    
1
 
 SOLVING FOR HEAD 
                                                   Max.-Head-Change                        Max.-Flux-Residual
  Residual-Control   Outer-Iter.   Inner-Iter.     Column Row Layer    Max.-Head-Change    Column Row Layer    Max.-Flux-Residual            L2-New               L2-Old           Solver-Max-Delh
          0                 1           2            59   48     1       0.2440806700E+00      36   86    1       0.3101368766E+05      0.9741913117E+05      0.2701272135E+02      0.2440806700E+00
          0                 2           2            26   78     1       0.4253197774E-01      36   86    1      -0.3101399338E+04      0.9745740232E+04      0.9741913117E+05      0.4253197774E-01

    ------------------------------------------------
       NWT REQUIRED            2 OUTER ITERATIONS 
       AND A TOTAL OF          4 INNER ITERATIONS.
    ------------------------------------------------

 OUTPUT CONTROL FOR STRESS PERIOD    1   TIME STEP  351
    SAVE HEAD FOR ALL LAYERS
    SAVE DRAWDOWN FOR ALL LAYERS
    SAVE BUDGET
    PRINT BUDGET
 UBDSV1 SAVING "         STORAGE" ON UNIT   9 AT TIME STEP351, STRESS PERIOD   1
 UBDSV2 SAVING "   CONSTANT HEAD" ON UNIT   9 AT TIME STEP351, STRESS PERIOD   1
 UBDSV1 SAVING "FLOW RIGHT FACE " ON UNIT   9 AT TIME STEP351, STRESS PERIOD   1
 UBDSV1 SAVING "FLOW FRONT FACE " ON UNIT   9 AT TIME STEP351, STRESS PERIOD   1
 UBDSV4 SAVING "   RIVER LEAKAGE" ON UNIT   9 AT TIME STEP351, STRESS PERIOD   1
 UBDSV3 SAVING "        RECHARGE" ON UNIT   9 AT TIME STEP351, STRESS PERIOD   1

 HEAD WILL BE SAVED ON UNIT   37 AT END OF TIME STEP  351, STRESS PERIOD    1

 DRAWDOWN WILL BE SAVED ON UNIT   38 AT END OF TIME STEP  351, STRESS PERIOD    1
1
  VOLUMETRIC BUDGET FOR ENTIRE MODEL AT END OF TIME STEP  351, STRESS PERIOD   1
  ------------------------------------------------------------------------------

     CUMULATIVE VOLUMES      L**3       RATES FOR THIS TIME STEP      L**3/T
     ------------------                 ------------------------

           IN:                                      IN:
           ---                                      ---
             STORAGE =   292851744.0000               STORAGE =      746139.7500
       CONSTANT HEAD =           0.0000         CONSTANT HEAD =           0.0000
       RIVER LEAKAGE =  1210247424.0000         RIVER LEAKAGE =      427523.5938
            RECHARGE =     7265565.5000              RECHARGE =         207.7843

            TOTAL IN =  1510364672.0000              TOTAL IN =     1173871.1250

          OUT:                                     OUT:
          ----                                     ----
             STORAGE =  1481378176.0000               STORAGE =      979890.3125
       CONSTANT HEAD =           0.0000         CONSTANT HEAD =           0.0000
       RIVER LEAKAGE =    29450918.0000         RIVER LEAKAGE =      195697.7500
            RECHARGE =           0.0000              RECHARGE =           0.0000

           TOTAL OUT =  1510829056.0000             TOTAL OUT =     1175588.0000

            IN - OUT =     -464384.0000              IN - OUT =       -1716.8750

 PERCENT DISCREPANCY =          -0.03     PERCENT DISCREPANCY =          -0.15






         TIME SUMMARY AT END OF TIME STEP  351 IN STRESS PERIOD    1
                    SECONDS     MINUTES      HOURS       DAYS        YEARS
                    -----------------------------------------------------------
   TIME STEP LENGTH  86400.      1440.0      24.000      1.0000     2.73785E-03
 STRESS PERIOD TIME 3.03264E+07 5.05440E+05  8424.0      351.00     0.96099    
         TOTAL TIME 3.03264E+07 5.05440E+05  8424.0      351.00     0.96099    
1
 
 SOLVING FOR HEAD 
                                                   Max.-Head-Change                        Max.-Flux-Residual
  Residual-Control   Outer-Iter.   Inner-Iter.     Column Row Layer    Max.-Head-Change    Column Row Layer    Max.-Flux-Residual            L2-New               L2-Old           Solver-Max-Delh
          0                 1           2            59   48     1       0.2429215297E+00      26  115    1       0.3121561442E+05      0.1451817646E+06      0.4873636186E+03      0.2429215297E+00
          0                 2           2            26   78     1       0.4248116071E-01      26  115    1      -0.3121562271E+04      0.1451819379E+05      0.1451817646E+06      0.4248116071E-01
          0                 3           2            26   78     1       0.4246620870E-01      26  115    1      -0.1560780401E+03      0.7259608079E+03      0.1451819379E+05      0.4246620870E-01

    ------------------------------------------------
       NWT REQUIRED            3 OUTER ITERATIONS 
       AND A TOTAL OF          6 INNER ITERATIONS.
    ------------------------------------------------

 OUTPUT CONTROL FOR STRESS PERIOD    1   TIME STEP  352
    SAVE HEAD FOR ALL LAYERS
    SAVE DRAWDOWN FOR ALL LAYERS
    SAVE BUDGET
    PRINT BUDGET
 UBDSV1 SAVING "         STORAGE" ON UNIT   9 AT TIME STEP352, STRESS PERIOD   1
 UBDSV2 SAVING "   CONSTANT HEAD" ON UNIT   9 AT TIME STEP352, STRESS PERIOD   1
 UBDSV1 SAVING "FLOW RIGHT FACE " ON UNIT   9 AT TIME STEP352, STRESS PERIOD   1
 UBDSV1 SAVING "FLOW FRONT FACE " ON UNIT   9 AT TIME STEP352, STRESS PERIOD   1
 UBDSV4 SAVING "   RIVER LEAKAGE" ON UNIT   9 AT TIME STEP352, STRESS PERIOD   1
 UBDSV3 SAVING "        RECHARGE" ON UNIT   9 AT TIME STEP352, STRESS PERIOD   1

 HEAD WILL BE SAVED ON UNIT   37 AT END OF TIME STEP  352, STRESS PERIOD    1

 DRAWDOWN WILL BE SAVED ON UNIT   38 AT END OF TIME STEP  352, STRESS PERIOD    1
1
  VOLUMETRIC BUDGET FOR ENTIRE MODEL AT END OF TIME STEP  352, STRESS PERIOD   1
  ------------------------------------------------------------------------------

     CUMULATIVE VOLUMES      L**3       RATES FOR THIS TIME STEP      L**3/T
     ------------------                 ------------------------

           IN:                                      IN:
           ---                                      ---
             STORAGE =   293586656.0000               STORAGE =      734906.6250
       CONSTANT HEAD =           0.0000         CONSTANT HEAD =           0.0000
       RIVER LEAKAGE =  1210808960.0000         RIVER LEAKAGE =      561571.4375
            RECHARGE =     7265937.0000              RECHARGE =         371.4067

            TOTAL IN =  1511661568.0000              TOTAL IN =     1296849.5000

          OUT:                                     OUT:
          ----                                     ----
             STORAGE =  1482481152.0000               STORAGE =     1102915.0000
       CONSTANT HEAD =           0.0000         CONSTANT HEAD =           0.0000
       RIVER LEAKAGE =    29645148.0000         RIVER LEAKAGE =      194229.3906
            RECHARGE =           0.0000              RECHARGE =           0.0000

           TOTAL OUT =  1512126336.0000             TOTAL OUT =     1297144.3750

            IN - OUT =     -464768.0000              IN - OUT =        -294.8750

 PERCENT DISCREPANCY =          -0.03     PERCENT DISCREPANCY =          -0.02






         TIME SUMMARY AT END OF TIME STEP  352 IN STRESS PERIOD    1
                    SECONDS     MINUTES      HOURS       DAYS        YEARS
                    -----------------------------------------------------------
   TIME STEP LENGTH  86400.      1440.0      24.000      1.0000     2.73785E-03
 STRESS PERIOD TIME 3.04128E+07 5.06880E+05  8448.0      352.00     0.96372    
         TOTAL TIME 3.04128E+07 5.06880E+05  8448.0      352.00     0.96372    
1
 
 SOLVING FOR HEAD 
                                                   Max.-Head-Change                        Max.-Flux-Residual
  Residual-Control   Outer-Iter.   Inner-Iter.     Column Row Layer    Max.-Head-Change    Column Row Layer    Max.-Flux-Residual            L2-New               L2-Old           Solver-Max-Delh
          0                 1           2            59   48     1       0.2419419706E+00      26  115    1      -0.3199978272E+05      0.1415778800E+06      0.3730367917E+02      0.2419419706E+00
          0                 2           2            36   47     1       0.5396351519E+01      26  115    1       0.3199979401E+04      0.1413196750E+05      0.1415778800E+06      0.5396351519E+01
          1                 2           0            36   47     1       0.3777445999E+01      36   47    1      -0.8307034420E+06      0.1290483391E+07      0.1413196750E+05      0.5396351519E+01
          2                 2           0            36   47     1       0.2644212154E+01      36   47    1      -0.5811664611E+06      0.9026651177E+06      0.1290483391E+07      0.5396351519E+01
          3                 2           0            36   47     1       0.1850948476E+01      36   47    1      -0.4064905774E+06      0.6312160138E+06      0.9026651177E+06      0.5396351519E+01
          4                 2           0            36   47     1       0.1295663911E+01      36   47    1      -0.2842174609E+06      0.4412355850E+06      0.6312160138E+06      0.5396351519E+01
          5                 2           0            36   47     1       0.9069647226E+00      36   47    1      -0.1986262808E+06      0.3082979835E+06      0.4412355850E+06      0.5396351519E+01
          6                 2           0            36   47     1       0.6348752950E+00      36   47    1      -0.1387124558E+06      0.2153116240E+06      0.3082979835E+06      0.5396351519E+01
          7                 2           0            36   47     1       0.4444126989E+00      36   47    1      -0.9677277897E+05      0.1503218181E+06      0.2153116240E+06      0.5396351519E+01
          8                 2           0            36   47     1       0.3110888840E+00      36   47    1      -0.6741500570E+05      0.1049738568E+06      0.1503218181E+06      0.5396351519E+01
                                                   Max.-Head-Change                        Max.-Flux-Residual
  Residual-Control   Outer-Iter.   Inner-Iter.     Column Row Layer    Max.-Head-Change    Column Row Layer    Max.-Flux-Residual            L2-New               L2-Old           Solver-Max-Delh
          9                 2           0            36   47     1       0.2177622151E+00      36   47    1      -0.4686456476E+05      0.7343864772E+05      0.1049738568E+06      0.5396351519E+01
         10                 2           0            36   47     1       0.1524335479E+00      36   47    1      -0.3247925635E+05      0.5166164346E+05      0.7343864772E+05      0.5396351519E+01
         11                 2           0            36   47     1       0.1067034817E+00      36   47    1      -0.2240954063E+05      0.3683489558E+05      0.5166164346E+05      0.5396351519E+01
         12                 2           0            36   47     1       0.7469243595E-01      36   47    1      -0.1536073975E+05      0.2701536260E+05      0.3683489558E+05      0.5396351519E+01
         13                 2           0            36   47     1       0.5228470427E-01      36   47    1      -0.1042657922E+05      0.2082737848E+05      0.2701536260E+05      0.5396351519E+01
         14                 2           0            36   47     1       0.3659929237E-01      36   47    1      -0.6972666904E+04      0.1722016519E+05      0.2082737848E+05      0.5396351519E+01
          0                 3           2            26   78     1       0.4241212233E-01      36   47    1      -0.4554928325E+04      0.1532178218E+05      0.1722016519E+05      0.4241212233E-01
          0                 4           2            26   78     1       0.4239720229E-01      36   47    1      -0.8084996058E+03      0.1350859366E+04      0.1532178218E+05      0.4239720229E-01

    ------------------------------------------------
       NWT REQUIRED            4 OUTER ITERATIONS 
       AND A TOTAL OF          8 INNER ITERATIONS.
    ------------------------------------------------

 OUTPUT CONTROL FOR STRESS PERIOD    1   TIME STEP  353
    SAVE HEAD FOR ALL LAYERS
    SAVE DRAWDOWN FOR ALL LAYERS
    SAVE BUDGET
    PRINT BUDGET
 UBDSV1 SAVING "         STORAGE" ON UNIT   9 AT TIME STEP353, STRESS PERIOD   1
 UBDSV2 SAVING "   CONSTANT HEAD" ON UNIT   9 AT TIME STEP353, STRESS PERIOD   1
 UBDSV1 SAVING "FLOW RIGHT FACE " ON UNIT   9 AT TIME STEP353, STRESS PERIOD   1
 UBDSV1 SAVING "FLOW FRONT FACE " ON UNIT   9 AT TIME STEP353, STRESS PERIOD   1
 UBDSV4 SAVING "   RIVER LEAKAGE" ON UNIT   9 AT TIME STEP353, STRESS PERIOD   1
 UBDSV3 SAVING "        RECHARGE" ON UNIT   9 AT TIME STEP353, STRESS PERIOD   1

 HEAD WILL BE SAVED ON UNIT   37 AT END OF TIME STEP  353, STRESS PERIOD    1

 DRAWDOWN WILL BE SAVED ON UNIT   38 AT END OF TIME STEP  353, STRESS PERIOD    1
1
  VOLUMETRIC BUDGET FOR ENTIRE MODEL AT END OF TIME STEP  353, STRESS PERIOD   1
  ------------------------------------------------------------------------------

     CUMULATIVE VOLUMES      L**3       RATES FOR THIS TIME STEP      L**3/T
     ------------------                 ------------------------

           IN:                                      IN:
           ---                                      ---
             STORAGE =   294329344.0000               STORAGE =      742694.6250
       CONSTANT HEAD =           0.0000         CONSTANT HEAD =           0.0000
       RIVER LEAKAGE =  1211235712.0000         RIVER LEAKAGE =      426741.0938
            RECHARGE =     7267069.0000              RECHARGE =        1131.8757

            TOTAL IN =  1512832128.0000              TOTAL IN =     1170567.6250

          OUT:                                     OUT:
          ----                                     ----
             STORAGE =  1483455232.0000               STORAGE =      974138.5000
       CONSTANT HEAD =           0.0000         CONSTANT HEAD =           0.0000
       RIVER LEAKAGE =    29841840.0000         RIVER LEAKAGE =      196692.6406
            RECHARGE =           0.0000              RECHARGE =           0.0000

           TOTAL OUT =  1513297024.0000             TOTAL OUT =     1170831.1250

            IN - OUT =     -464896.0000              IN - OUT =        -263.5000

 PERCENT DISCREPANCY =          -0.03     PERCENT DISCREPANCY =          -0.02






         TIME SUMMARY AT END OF TIME STEP  353 IN STRESS PERIOD    1
                    SECONDS     MINUTES      HOURS       DAYS        YEARS
                    -----------------------------------------------------------
   TIME STEP LENGTH  86400.      1440.0      24.000      1.0000     2.73785E-03
 STRESS PERIOD TIME 3.04992E+07 5.08320E+05  8472.0      353.00     0.96646    
         TOTAL TIME 3.04992E+07 5.08320E+05  8472.0      353.00     0.96646    
1
 
 SOLVING FOR HEAD 
                                                   Max.-Head-Change                        Max.-Flux-Residual
  Residual-Control   Outer-Iter.   Inner-Iter.     Column Row Layer    Max.-Head-Change    Column Row Layer    Max.-Flux-Residual            L2-New               L2-Old           Solver-Max-Delh
          0                 1           2            59   48     1       0.2408730071E+00      36   86    1       0.3093646793E+05      0.9540559960E+05      0.2088942873E+03      0.2408730071E+00
          0                 2           2            26   78     1       0.4234436827E-01      36   86    1      -0.3093677113E+04      0.9540583963E+04      0.9540559960E+05      0.4234436827E-01

    ------------------------------------------------
       NWT REQUIRED            2 OUTER ITERATIONS 
       AND A TOTAL OF          4 INNER ITERATIONS.
    ------------------------------------------------

 OUTPUT CONTROL FOR STRESS PERIOD    1   TIME STEP  354
    SAVE HEAD FOR ALL LAYERS
    SAVE DRAWDOWN FOR ALL LAYERS
    SAVE BUDGET
    PRINT BUDGET
 UBDSV1 SAVING "         STORAGE" ON UNIT   9 AT TIME STEP354, STRESS PERIOD   1
 UBDSV2 SAVING "   CONSTANT HEAD" ON UNIT   9 AT TIME STEP354, STRESS PERIOD   1
 UBDSV1 SAVING "FLOW RIGHT FACE " ON UNIT   9 AT TIME STEP354, STRESS PERIOD   1
 UBDSV1 SAVING "FLOW FRONT FACE " ON UNIT   9 AT TIME STEP354, STRESS PERIOD   1
 UBDSV4 SAVING "   RIVER LEAKAGE" ON UNIT   9 AT TIME STEP354, STRESS PERIOD   1
 UBDSV3 SAVING "        RECHARGE" ON UNIT   9 AT TIME STEP354, STRESS PERIOD   1

 HEAD WILL BE SAVED ON UNIT   37 AT END OF TIME STEP  354, STRESS PERIOD    1

 DRAWDOWN WILL BE SAVED ON UNIT   38 AT END OF TIME STEP  354, STRESS PERIOD    1
1
  VOLUMETRIC BUDGET FOR ENTIRE MODEL AT END OF TIME STEP  354, STRESS PERIOD   1
  ------------------------------------------------------------------------------

     CUMULATIVE VOLUMES      L**3       RATES FOR THIS TIME STEP      L**3/T
     ------------------                 ------------------------

           IN:                                      IN:
           ---                                      ---
             STORAGE =   295073248.0000               STORAGE =      743894.1250
       CONSTANT HEAD =           0.0000         CONSTANT HEAD =           0.0000
       RIVER LEAKAGE =  1211666560.0000         RIVER LEAKAGE =      430789.6250
            RECHARGE =     7268401.0000              RECHARGE =        1331.8905

            TOTAL IN =  1514008192.0000              TOTAL IN =     1176015.6250

          OUT:                                     OUT:
          ----                                     ----
             STORAGE =  1484437120.0000               STORAGE =      981906.4375
       CONSTANT HEAD =           0.0000         CONSTANT HEAD =           0.0000
       RIVER LEAKAGE =    30037388.0000         RIVER LEAKAGE =      195547.5156
            RECHARGE =           0.0000              RECHARGE =           0.0000

           TOTAL OUT =  1514474496.0000             TOTAL OUT =     1177454.0000

            IN - OUT =     -466304.0000              IN - OUT =       -1438.3750

 PERCENT DISCREPANCY =          -0.03     PERCENT DISCREPANCY =          -0.12






         TIME SUMMARY AT END OF TIME STEP  354 IN STRESS PERIOD    1
                    SECONDS     MINUTES      HOURS       DAYS        YEARS
                    -----------------------------------------------------------
   TIME STEP LENGTH  86400.      1440.0      24.000      1.0000     2.73785E-03
 STRESS PERIOD TIME 3.05856E+07 5.09760E+05  8496.0      354.00     0.96920    
         TOTAL TIME 3.05856E+07 5.09760E+05  8496.0      354.00     0.96920    
1
 
 SOLVING FOR HEAD 
                                                   Max.-Head-Change                        Max.-Flux-Residual
  Residual-Control   Outer-Iter.   Inner-Iter.     Column Row Layer    Max.-Head-Change    Column Row Layer    Max.-Flux-Residual            L2-New               L2-Old           Solver-Max-Delh
          0                 1           2            59   48     1       0.2399961178E+00      36   86    1       0.3091048654E+05      0.9600348623E+05      0.4771136607E+03      0.2399961178E+00
          0                 2           2            26   78     1       0.4229069700E-01      36   86    1      -0.3091078965E+04      0.9600413804E+04      0.9600348623E+05      0.4229069700E-01

    ------------------------------------------------
       NWT REQUIRED            2 OUTER ITERATIONS 
       AND A TOTAL OF          4 INNER ITERATIONS.
    ------------------------------------------------

 OUTPUT CONTROL FOR STRESS PERIOD    1   TIME STEP  355
    SAVE HEAD FOR ALL LAYERS
    SAVE DRAWDOWN FOR ALL LAYERS
    SAVE BUDGET
    PRINT BUDGET
 UBDSV1 SAVING "         STORAGE" ON UNIT   9 AT TIME STEP355, STRESS PERIOD   1
 UBDSV2 SAVING "   CONSTANT HEAD" ON UNIT   9 AT TIME STEP355, STRESS PERIOD   1
 UBDSV1 SAVING "FLOW RIGHT FACE " ON UNIT   9 AT TIME STEP355, STRESS PERIOD   1
 UBDSV1 SAVING "FLOW FRONT FACE " ON UNIT   9 AT TIME STEP355, STRESS PERIOD   1
 UBDSV4 SAVING "   RIVER LEAKAGE" ON UNIT   9 AT TIME STEP355, STRESS PERIOD   1
 UBDSV3 SAVING "        RECHARGE" ON UNIT   9 AT TIME STEP355, STRESS PERIOD   1

 HEAD WILL BE SAVED ON UNIT   37 AT END OF TIME STEP  355, STRESS PERIOD    1

 DRAWDOWN WILL BE SAVED ON UNIT   38 AT END OF TIME STEP  355, STRESS PERIOD    1
1
  VOLUMETRIC BUDGET FOR ENTIRE MODEL AT END OF TIME STEP  355, STRESS PERIOD   1
  ------------------------------------------------------------------------------

     CUMULATIVE VOLUMES      L**3       RATES FOR THIS TIME STEP      L**3/T
     ------------------                 ------------------------

           IN:                                      IN:
           ---                                      ---
             STORAGE =   295817856.0000               STORAGE =      744593.3125
       CONSTANT HEAD =           0.0000         CONSTANT HEAD =           0.0000
       RIVER LEAKAGE =  1212092800.0000         RIVER LEAKAGE =      426266.1875
            RECHARGE =     7269465.0000              RECHARGE =        1063.8989

            TOTAL IN =  1515180160.0000              TOTAL IN =     1171923.3750

          OUT:                                     OUT:
          ----                                     ----
             STORAGE =  1485414528.0000               STORAGE =      977385.7500
       CONSTANT HEAD =           0.0000         CONSTANT HEAD =           0.0000
       RIVER LEAKAGE =    30232550.0000         RIVER LEAKAGE =      195162.8438
            RECHARGE =           0.0000              RECHARGE =           0.0000

           TOTAL OUT =  1515647104.0000             TOTAL OUT =     1172548.6250

            IN - OUT =     -466944.0000              IN - OUT =        -625.2500

 PERCENT DISCREPANCY =          -0.03     PERCENT DISCREPANCY =          -0.05






         TIME SUMMARY AT END OF TIME STEP  355 IN STRESS PERIOD    1
                    SECONDS     MINUTES      HOURS       DAYS        YEARS
                    -----------------------------------------------------------
   TIME STEP LENGTH  86400.      1440.0      24.000      1.0000     2.73785E-03
 STRESS PERIOD TIME 3.06720E+07 5.11200E+05  8520.0      355.00     0.97194    
         TOTAL TIME 3.06720E+07 5.11200E+05  8520.0      355.00     0.97194    
1
 
 SOLVING FOR HEAD 
                                                   Max.-Head-Change                        Max.-Flux-Residual
  Residual-Control   Outer-Iter.   Inner-Iter.     Column Row Layer    Max.-Head-Change    Column Row Layer    Max.-Flux-Residual            L2-New               L2-Old           Solver-Max-Delh
          0                 1           2            59   48     1       0.2389308831E+00      36   86    1       0.3088446119E+05      0.1049786493E+06      0.4809025622E+03      0.2389308831E+00
          0                 2           2            29  111     1      -0.2777532055E+01      36   86    1      -0.3088476972E+04      0.1053230284E+05      0.1049786493E+06     -0.2777532055E+01
          1                 2           0            29  111     1      -0.1944272405E+01      29  111    1       0.2687905690E+07      0.2687905839E+07      0.1053230284E+05     -0.2777532055E+01
          2                 2           0            29  111     1      -0.1360990661E+01      29  111    1       0.1854047926E+07      0.1854051279E+07      0.2687905839E+07     -0.2777532055E+01
          3                 2           0            29  111     1      -0.9526934462E+00      29  111    1       0.1270326843E+07      0.1270339190E+07      0.1854051279E+07     -0.2777532055E+01
          4                 2           0            29  111     1      -0.6668854010E+00      29  111    1       0.8617119692E+06      0.8617409347E+06      0.1270339190E+07     -0.2777532055E+01
          5                 2           0            29  111     1      -0.4668197728E+00      29  111    1       0.5756766023E+06      0.5757334911E+06      0.8617409347E+06     -0.2777532055E+01
          6                 2           0            29  111     1      -0.3267738354E+00      29  111    1       0.3754494185E+06      0.3755528568E+06      0.5757334911E+06     -0.2777532055E+01
          7                 2           0            29  111     1      -0.2287416809E+00      29  111    1       0.2352892012E+06      0.2354736517E+06      0.3755528568E+06     -0.2777532055E+01
          8                 2           0            29  111     1      -0.1601191739E+00      29  111    1       0.1371764673E+06      0.1375170042E+06      0.2354736517E+06     -0.2777532055E+01
                                                   Max.-Head-Change                        Max.-Flux-Residual
  Residual-Control   Outer-Iter.   Inner-Iter.     Column Row Layer    Max.-Head-Change    Column Row Layer    Max.-Flux-Residual            L2-New               L2-Old           Solver-Max-Delh
          9                 2           0            29  111     1      -0.1120834198E+00      29  111    1       0.6849726875E+05      0.6921175168E+05      0.1375170042E+06     -0.2777532055E+01
         10                 2           0            29  111     1      -0.7845839253E-01      29  111    1       0.2042169049E+05      0.2277943947E+05      0.6921175168E+05     -0.2777532055E+01
          0                 3           2            29  111     1      -0.2691227784E+01      36   86    1      -0.3005597246E+04      0.1024928967E+05      0.2277943947E+05     -0.2691227784E+01
          1                 3           0            29  111     1      -0.1883859417E+01      29  111    1       0.2680054342E+07      0.2680054488E+07      0.1024928967E+05     -0.2691227784E+01
          2                 3           0            29  111     1      -0.1318701569E+01      29  111    1       0.1872106651E+07      0.1872109799E+07      0.2680054488E+07     -0.2691227784E+01
          3                 3           0            29  111     1      -0.9230910828E+00      29  111    1       0.1306523883E+07      0.1306535253E+07      0.1872109799E+07     -0.2691227784E+01
          4                 3           0            29  111     1      -0.6461637469E+00      29  111    1       0.9106064480E+06      0.9106324037E+06      0.1306535253E+07     -0.2691227784E+01
          5                 3           0            29  111     1      -0.4523146152E+00      29  111    1       0.6334595919E+06      0.6335085451E+06      0.9106324037E+06     -0.2691227784E+01
          6                 3           0            29  111     1      -0.3166202252E+00      29  111    1       0.4394545142E+06      0.4395381928E+06      0.6335085451E+06     -0.2691227784E+01
          7                 3           0            29  111     1      -0.2216341539E+00      29  111    1       0.3036498440E+06      0.3037851922E+06      0.4395381928E+06     -0.2691227784E+01
                                                   Max.-Head-Change                        Max.-Flux-Residual
  Residual-Control   Outer-Iter.   Inner-Iter.     Column Row Layer    Max.-Head-Change    Column Row Layer    Max.-Flux-Residual            L2-New               L2-Old           Solver-Max-Delh
          8                 3           0            29  111     1      -0.1551439051E+00      29  111    1       0.2085860287E+06      0.2087982274E+06      0.3037851922E+06     -0.2691227784E+01
          9                 3           0            29  111     1      -0.1086007317E+00      29  111    1       0.1420410906E+06      0.1423686376E+06      0.2087982274E+06     -0.2691227784E+01
         10                 3           0            29  111     1      -0.7602051090E-01      29  111    1       0.9545950327E+05      0.9596330675E+05      0.1423686376E+06     -0.2691227784E+01
         11                 3           0            29  111     1      -0.5321435672E-01      29  111    1       0.6285232821E+05      0.6363321519E+05      0.9596330675E+05     -0.2691227784E+01
         12                 3           0            29  111     1      -0.3725004907E-01      29  111    1       0.4002727447E+05      0.4126260198E+05      0.6363321519E+05     -0.2691227784E+01
         13                 3           0            29  111     1      -0.2607503391E-01      29  111    1       0.2404972165E+05      0.2607625374E+05      0.4126260198E+05     -0.2691227784E+01
         14                 3           0            29  111     1      -0.1825252342E-01      29  111    1       0.1286542729E+05      0.1636822291E+05      0.2607625374E+05     -0.2691227784E+01
         15                 3           0            29  111     1      -0.1277676618E-01      29  111    1       0.5036417647E+04      0.1132869333E+05      0.1636822291E+05     -0.2691227784E+01
          0                 4           2            51   57     1       0.1662424013E+00      36   86    1      -0.2992041311E+04      0.1017712107E+05      0.1132869333E+05      0.1662424013E+00
          0                 5           2            26   78     1       0.4222224876E-01      36   86    1      -0.1495423651E+03      0.5101771429E+03      0.1017712107E+05      0.4222224876E-01

    ------------------------------------------------
       NWT REQUIRED            5 OUTER ITERATIONS 
       AND A TOTAL OF         10 INNER ITERATIONS.
    ------------------------------------------------

 OUTPUT CONTROL FOR STRESS PERIOD    1   TIME STEP  356
    SAVE HEAD FOR ALL LAYERS
    SAVE DRAWDOWN FOR ALL LAYERS
    SAVE BUDGET
    PRINT BUDGET
 UBDSV1 SAVING "         STORAGE" ON UNIT   9 AT TIME STEP356, STRESS PERIOD   1
 UBDSV2 SAVING "   CONSTANT HEAD" ON UNIT   9 AT TIME STEP356, STRESS PERIOD   1
 UBDSV1 SAVING "FLOW RIGHT FACE " ON UNIT   9 AT TIME STEP356, STRESS PERIOD   1
 UBDSV1 SAVING "FLOW FRONT FACE " ON UNIT   9 AT TIME STEP356, STRESS PERIOD   1
 UBDSV4 SAVING "   RIVER LEAKAGE" ON UNIT   9 AT TIME STEP356, STRESS PERIOD   1
 UBDSV3 SAVING "        RECHARGE" ON UNIT   9 AT TIME STEP356, STRESS PERIOD   1

 HEAD WILL BE SAVED ON UNIT   37 AT END OF TIME STEP  356, STRESS PERIOD    1

 DRAWDOWN WILL BE SAVED ON UNIT   38 AT END OF TIME STEP  356, STRESS PERIOD    1
1
  VOLUMETRIC BUDGET FOR ENTIRE MODEL AT END OF TIME STEP  356, STRESS PERIOD   1
  ------------------------------------------------------------------------------

     CUMULATIVE VOLUMES      L**3       RATES FOR THIS TIME STEP      L**3/T
     ------------------                 ------------------------

           IN:                                      IN:
           ---                                      ---
             STORAGE =   296565664.0000               STORAGE =      747803.1250
       CONSTANT HEAD =           0.0000         CONSTANT HEAD =           0.0000
       RIVER LEAKAGE =  1212465792.0000         RIVER LEAKAGE =      373017.7500
            RECHARGE =     7270162.5000              RECHARGE =         697.6086

            TOTAL IN =  1516301568.0000              TOTAL IN =     1121518.5000

          OUT:                                     OUT:
          ----                                     ----
             STORAGE =  1486339968.0000               STORAGE =      925450.3125
       CONSTANT HEAD =           0.0000         CONSTANT HEAD =           0.0000
       RIVER LEAKAGE =    30428506.0000         RIVER LEAKAGE =      195956.3438
            RECHARGE =           0.0000              RECHARGE =           0.0000

           TOTAL OUT =  1516768512.0000             TOTAL OUT =     1121406.6250

            IN - OUT =     -466944.0000              IN - OUT =         111.8750

 PERCENT DISCREPANCY =          -0.03     PERCENT DISCREPANCY =           0.01






         TIME SUMMARY AT END OF TIME STEP  356 IN STRESS PERIOD    1
                    SECONDS     MINUTES      HOURS       DAYS        YEARS
                    -----------------------------------------------------------
   TIME STEP LENGTH  86400.      1440.0      24.000      1.0000     2.73785E-03
 STRESS PERIOD TIME 3.07584E+07 5.12640E+05  8544.0      356.00     0.97467    
         TOTAL TIME 3.07584E+07 5.12640E+05  8544.0      356.00     0.97467    
1
 
 SOLVING FOR HEAD 
                                                   Max.-Head-Change                        Max.-Flux-Residual
  Residual-Control   Outer-Iter.   Inner-Iter.     Column Row Layer    Max.-Head-Change    Column Row Layer    Max.-Flux-Residual            L2-New               L2-Old           Solver-Max-Delh
          0                 1           2            59   48     1       0.2379338057E+00      36   86    1       0.3085829542E+05      0.9312670662E+05      0.2690130099E+02      0.2379338057E+00
          0                 2           2            26   78     1       0.4216984271E-01      36   86    1      -0.3085860228E+04      0.9312695171E+04      0.9312670662E+05      0.4216984271E-01

    ------------------------------------------------
       NWT REQUIRED            2 OUTER ITERATIONS 
       AND A TOTAL OF          4 INNER ITERATIONS.
    ------------------------------------------------

 OUTPUT CONTROL FOR STRESS PERIOD    1   TIME STEP  357
    SAVE HEAD FOR ALL LAYERS
    SAVE DRAWDOWN FOR ALL LAYERS
    SAVE BUDGET
    PRINT BUDGET
 UBDSV1 SAVING "         STORAGE" ON UNIT   9 AT TIME STEP357, STRESS PERIOD   1
 UBDSV2 SAVING "   CONSTANT HEAD" ON UNIT   9 AT TIME STEP357, STRESS PERIOD   1
 UBDSV1 SAVING "FLOW RIGHT FACE " ON UNIT   9 AT TIME STEP357, STRESS PERIOD   1
 UBDSV1 SAVING "FLOW FRONT FACE " ON UNIT   9 AT TIME STEP357, STRESS PERIOD   1
 UBDSV4 SAVING "   RIVER LEAKAGE" ON UNIT   9 AT TIME STEP357, STRESS PERIOD   1
 UBDSV3 SAVING "        RECHARGE" ON UNIT   9 AT TIME STEP357, STRESS PERIOD   1

 HEAD WILL BE SAVED ON UNIT   37 AT END OF TIME STEP  357, STRESS PERIOD    1

 DRAWDOWN WILL BE SAVED ON UNIT   38 AT END OF TIME STEP  357, STRESS PERIOD    1
1
  VOLUMETRIC BUDGET FOR ENTIRE MODEL AT END OF TIME STEP  357, STRESS PERIOD   1
  ------------------------------------------------------------------------------

     CUMULATIVE VOLUMES      L**3       RATES FOR THIS TIME STEP      L**3/T
     ------------------                 ------------------------

           IN:                                      IN:
           ---                                      ---
             STORAGE =   297314368.0000               STORAGE =      748699.3125
       CONSTANT HEAD =           0.0000         CONSTANT HEAD =           0.0000
       RIVER LEAKAGE =  1212848000.0000         RIVER LEAKAGE =      382171.7500
            RECHARGE =     7270800.5000              RECHARGE =         638.0731

            TOTAL IN =  1517433088.0000              TOTAL IN =     1131509.1250

          OUT:                                     OUT:
          ----                                     ----
             STORAGE =  1487277056.0000               STORAGE =      937039.0000
       CONSTANT HEAD =           0.0000         CONSTANT HEAD =           0.0000
       RIVER LEAKAGE =    30624200.0000         RIVER LEAKAGE =      195693.5469
            RECHARGE =           0.0000              RECHARGE =           0.0000

           TOTAL OUT =  1517901312.0000             TOTAL OUT =     1132732.5000

            IN - OUT =     -468224.0000              IN - OUT =       -1223.3750

 PERCENT DISCREPANCY =          -0.03     PERCENT DISCREPANCY =          -0.11






         TIME SUMMARY AT END OF TIME STEP  357 IN STRESS PERIOD    1
                    SECONDS     MINUTES      HOURS       DAYS        YEARS
                    -----------------------------------------------------------
   TIME STEP LENGTH  86400.      1440.0      24.000      1.0000     2.73785E-03
 STRESS PERIOD TIME 3.08448E+07 5.14080E+05  8568.0      357.00     0.97741    
         TOTAL TIME 3.08448E+07 5.14080E+05  8568.0      357.00     0.97741    
1
 
 SOLVING FOR HEAD 
                                                   Max.-Head-Change                        Max.-Flux-Residual
  Residual-Control   Outer-Iter.   Inner-Iter.     Column Row Layer    Max.-Head-Change    Column Row Layer    Max.-Flux-Residual            L2-New               L2-Old           Solver-Max-Delh
          0                 1           2            54   44     1      -0.2384218064E+00      36   86    1       0.3083202672E+05      0.1271077018E+06      0.4657136727E+03     -0.2384218064E+00
          0                 2           2            29  111     1       0.7709765440E+01      36   86    1      -0.3083232332E+04      0.1294009893E+05      0.1271077018E+06      0.7709765440E+01
          1                 2           0            29  111     1       0.5396835716E+01      29  111    1      -0.9261457201E+06      0.9268420375E+06      0.1294009893E+05      0.7709765440E+01
          2                 2           0            29  111     1       0.3777784937E+01      29  111    1      -0.6440199585E+06      0.6443967639E+06      0.9268420375E+06      0.7709765440E+01
          3                 2           0            29  111     1       0.2644449411E+01      29  111    1      -0.4465319291E+06      0.4467344776E+06      0.6443967639E+06      0.7709765440E+01
          4                 2           0            29  111     1       0.1851114556E+01      29  111    1      -0.3082903110E+06      0.3084436244E+06      0.4467344776E+06      0.7709765440E+01
          5                 2           0            29  111     1       0.1295780167E+01      29  111    1      -0.2115211800E+06      0.2117483256E+06      0.3084436244E+06      0.7709765440E+01
          6                 2           0            29  111     1       0.9070461016E+00      29  111    1      -0.1437827895E+06      0.1441785567E+06      0.2117483256E+06      0.7709765440E+01
          7                 2           0            29  111     1       0.6349322603E+00      29  111    1      -0.9636591704E+05      0.9702438907E+05      0.1441785567E+06      0.7709765440E+01
          8                 2           0            29  111     1       0.4444525746E+00      29  111    1      -0.6317410685E+05      0.6425040843E+05      0.9702438907E+05      0.7709765440E+01
                                                   Max.-Head-Change                        Max.-Flux-Residual
  Residual-Control   Outer-Iter.   Inner-Iter.     Column Row Layer    Max.-Head-Change    Column Row Layer    Max.-Flux-Residual            L2-New               L2-Old           Solver-Max-Delh
          9                 2           0            29  111     1       0.3111167970E+00      29  111    1      -0.3993984012E+05      0.4170633019E+05      0.6425040843E+05      0.7709765440E+01
         10                 2           0            29  111     1       0.2177817542E+00      29  111    1      -0.2367585369E+05      0.2664273219E+05      0.4170633019E+05      0.7709765440E+01
         11                 2           0            29  111     1       0.1524472253E+00      29  111    1      -0.1229106339E+05      0.1743429688E+05      0.2664273219E+05      0.7709765440E+01
          0                 3           2            59   51     1       0.3968918579E+00      29  111    1      -0.4321710309E+04      0.1319484147E+05      0.1743429688E+05      0.3968918579E+00
          1                 3           0            59   51     1       0.2778242958E+00      59   51    1      -0.3582048562E+05      0.3582655935E+05      0.1319484147E+05      0.3968918579E+00
          2                 3           0            59   51     1       0.1944770037E+00      59   51    1      -0.2183662817E+05      0.2227949559E+05      0.3582655935E+05      0.3968918579E+00
          0                 4           2            59   51     1      -0.9745462344E-01      59   51    1      -0.1204792812E+05      0.1396030771E+05      0.2227949559E+05     -0.9745462344E-01
          0                 5           2            26   78     1       0.4209726718E-01      59   51    1      -0.6023961007E+03      0.6980001997E+03      0.1396030771E+05      0.4209726718E-01

    ------------------------------------------------
       NWT REQUIRED            5 OUTER ITERATIONS 
       AND A TOTAL OF         10 INNER ITERATIONS.
    ------------------------------------------------

 OUTPUT CONTROL FOR STRESS PERIOD    1   TIME STEP  358
    SAVE HEAD FOR ALL LAYERS
    SAVE DRAWDOWN FOR ALL LAYERS
    SAVE BUDGET
    PRINT BUDGET
 UBDSV1 SAVING "         STORAGE" ON UNIT   9 AT TIME STEP358, STRESS PERIOD   1
 UBDSV2 SAVING "   CONSTANT HEAD" ON UNIT   9 AT TIME STEP358, STRESS PERIOD   1
 UBDSV1 SAVING "FLOW RIGHT FACE " ON UNIT   9 AT TIME STEP358, STRESS PERIOD   1
 UBDSV1 SAVING "FLOW FRONT FACE " ON UNIT   9 AT TIME STEP358, STRESS PERIOD   1
 UBDSV4 SAVING "   RIVER LEAKAGE" ON UNIT   9 AT TIME STEP358, STRESS PERIOD   1
 UBDSV3 SAVING "        RECHARGE" ON UNIT   9 AT TIME STEP358, STRESS PERIOD   1

 HEAD WILL BE SAVED ON UNIT   37 AT END OF TIME STEP  358, STRESS PERIOD    1

 DRAWDOWN WILL BE SAVED ON UNIT   38 AT END OF TIME STEP  358, STRESS PERIOD    1
1
  VOLUMETRIC BUDGET FOR ENTIRE MODEL AT END OF TIME STEP  358, STRESS PERIOD   1
  ------------------------------------------------------------------------------

     CUMULATIVE VOLUMES      L**3       RATES FOR THIS TIME STEP      L**3/T
     ------------------                 ------------------------

           IN:                                      IN:
           ---                                      ---
             STORAGE =   298050272.0000               STORAGE =      735896.6250
       CONSTANT HEAD =           0.0000         CONSTANT HEAD =           0.0000
       RIVER LEAKAGE =  1213352576.0000         RIVER LEAKAGE =      504581.2812
            RECHARGE =     7271592.5000              RECHARGE =         791.8176

            TOTAL IN =  1518674432.0000              TOTAL IN =     1241269.7500

          OUT:                                     OUT:
          ----                                     ----
             STORAGE =  1488323712.0000               STORAGE =     1046716.1875
       CONSTANT HEAD =           0.0000         CONSTANT HEAD =           0.0000
       RIVER LEAKAGE =    30818888.0000         RIVER LEAKAGE =      194688.9844
            RECHARGE =           0.0000              RECHARGE =           0.0000

           TOTAL OUT =  1519142656.0000             TOTAL OUT =     1241405.1250

            IN - OUT =     -468224.0000              IN - OUT =        -135.3750

 PERCENT DISCREPANCY =          -0.03     PERCENT DISCREPANCY =          -0.01






         TIME SUMMARY AT END OF TIME STEP  358 IN STRESS PERIOD    1
                    SECONDS     MINUTES      HOURS       DAYS        YEARS
                    -----------------------------------------------------------
   TIME STEP LENGTH  86400.      1440.0      24.000      1.0000     2.73785E-03
 STRESS PERIOD TIME 3.09312E+07 5.15520E+05  8592.0      358.00     0.98015    
         TOTAL TIME 3.09312E+07 5.15520E+05  8592.0      358.00     0.98015    
1
 
 SOLVING FOR HEAD 
                                                   Max.-Head-Change                        Max.-Flux-Residual
  Residual-Control   Outer-Iter.   Inner-Iter.     Column Row Layer    Max.-Head-Change    Column Row Layer    Max.-Flux-Residual            L2-New               L2-Old           Solver-Max-Delh
          0                 1           2            54   44     1      -0.2389434925E+00      34   98    1       0.5273624869E+05      0.1312002308E+06      0.3592535485E+02     -0.2389434925E+00
          0                 2           2            26   78     1       0.4204746807E-01      34   98    1      -0.5273629262E+04      0.1312005072E+05      0.1312002308E+06      0.4204746807E-01
          0                 3           2            26   78     1       0.4203272166E-01      34   98    1      -0.2636813617E+03      0.6560581584E+03      0.1312005072E+05      0.4203272166E-01

    ------------------------------------------------
       NWT REQUIRED            3 OUTER ITERATIONS 
       AND A TOTAL OF          6 INNER ITERATIONS.
    ------------------------------------------------

 OUTPUT CONTROL FOR STRESS PERIOD    1   TIME STEP  359
    SAVE HEAD FOR ALL LAYERS
    SAVE DRAWDOWN FOR ALL LAYERS
    SAVE BUDGET
    PRINT BUDGET
 UBDSV1 SAVING "         STORAGE" ON UNIT   9 AT TIME STEP359, STRESS PERIOD   1
 UBDSV2 SAVING "   CONSTANT HEAD" ON UNIT   9 AT TIME STEP359, STRESS PERIOD   1
 UBDSV1 SAVING "FLOW RIGHT FACE " ON UNIT   9 AT TIME STEP359, STRESS PERIOD   1
 UBDSV1 SAVING "FLOW FRONT FACE " ON UNIT   9 AT TIME STEP359, STRESS PERIOD   1
 UBDSV4 SAVING "   RIVER LEAKAGE" ON UNIT   9 AT TIME STEP359, STRESS PERIOD   1
 UBDSV3 SAVING "        RECHARGE" ON UNIT   9 AT TIME STEP359, STRESS PERIOD   1

 HEAD WILL BE SAVED ON UNIT   37 AT END OF TIME STEP  359, STRESS PERIOD    1

 DRAWDOWN WILL BE SAVED ON UNIT   38 AT END OF TIME STEP  359, STRESS PERIOD    1
1
  VOLUMETRIC BUDGET FOR ENTIRE MODEL AT END OF TIME STEP  359, STRESS PERIOD   1
  ------------------------------------------------------------------------------

     CUMULATIVE VOLUMES      L**3       RATES FOR THIS TIME STEP      L**3/T
     ------------------                 ------------------------

           IN:                                      IN:
           ---                                      ---
             STORAGE =   298784448.0000               STORAGE =      734186.1250
       CONSTANT HEAD =           0.0000         CONSTANT HEAD =           0.0000
       RIVER LEAKAGE =  1214005888.0000         RIVER LEAKAGE =      653285.6875
            RECHARGE =     7273942.0000              RECHARGE =        2349.4390

            TOTAL IN =  1520064256.0000              TOTAL IN =     1389821.2500

          OUT:                                     OUT:
          ----                                     ----
             STORAGE =  1489517952.0000               STORAGE =     1194272.5000
       CONSTANT HEAD =           0.0000         CONSTANT HEAD =           0.0000
       RIVER LEAKAGE =    31014514.0000         RIVER LEAKAGE =      195625.9062
            RECHARGE =           0.0000              RECHARGE =           0.0000

           TOTAL OUT =  1520532480.0000             TOTAL OUT =     1389898.3750

            IN - OUT =     -468224.0000              IN - OUT =         -77.1250

 PERCENT DISCREPANCY =          -0.03     PERCENT DISCREPANCY =          -0.01






         TIME SUMMARY AT END OF TIME STEP  359 IN STRESS PERIOD    1
                    SECONDS     MINUTES      HOURS       DAYS        YEARS
                    -----------------------------------------------------------
   TIME STEP LENGTH  86400.      1440.0      24.000      1.0000     2.73785E-03
 STRESS PERIOD TIME 3.10176E+07 5.16960E+05  8616.0      359.00     0.98289    
         TOTAL TIME 3.10176E+07 5.16960E+05  8616.0      359.00     0.98289    
1
 
 SOLVING FOR HEAD 
                                                   Max.-Head-Change                        Max.-Flux-Residual
  Residual-Control   Outer-Iter.   Inner-Iter.     Column Row Layer    Max.-Head-Change    Column Row Layer    Max.-Flux-Residual            L2-New               L2-Old           Solver-Max-Delh
          0                 1           2            54   44     1      -0.2393491789E+00      34   98    1      -0.4736489108E+05      0.1313923867E+06      0.3389292616E+02     -0.2393491789E+00
          0                 2           2            26   78     1       0.4197902646E-01      34   98    1       0.4736496266E+04      0.1313526876E+05      0.1313923867E+06      0.4197902646E-01
          0                 3           2            26   78     1       0.4196431150E-01      43   40    1      -0.6720828892E+03      0.9397239671E+03      0.1313526876E+05      0.4196431150E-01

    ------------------------------------------------
       NWT REQUIRED            3 OUTER ITERATIONS 
       AND A TOTAL OF          6 INNER ITERATIONS.
    ------------------------------------------------

 OUTPUT CONTROL FOR STRESS PERIOD    1   TIME STEP  360
    SAVE HEAD FOR ALL LAYERS
    SAVE DRAWDOWN FOR ALL LAYERS
    SAVE BUDGET
    PRINT BUDGET
 UBDSV1 SAVING "         STORAGE" ON UNIT   9 AT TIME STEP360, STRESS PERIOD   1
 UBDSV2 SAVING "   CONSTANT HEAD" ON UNIT   9 AT TIME STEP360, STRESS PERIOD   1
 UBDSV1 SAVING "FLOW RIGHT FACE " ON UNIT   9 AT TIME STEP360, STRESS PERIOD   1
 UBDSV1 SAVING "FLOW FRONT FACE " ON UNIT   9 AT TIME STEP360, STRESS PERIOD   1
 UBDSV4 SAVING "   RIVER LEAKAGE" ON UNIT   9 AT TIME STEP360, STRESS PERIOD   1
 UBDSV3 SAVING "        RECHARGE" ON UNIT   9 AT TIME STEP360, STRESS PERIOD   1

 HEAD WILL BE SAVED ON UNIT   37 AT END OF TIME STEP  360, STRESS PERIOD    1

 DRAWDOWN WILL BE SAVED ON UNIT   38 AT END OF TIME STEP  360, STRESS PERIOD    1
1
  VOLUMETRIC BUDGET FOR ENTIRE MODEL AT END OF TIME STEP  360, STRESS PERIOD   1
  ------------------------------------------------------------------------------

     CUMULATIVE VOLUMES      L**3       RATES FOR THIS TIME STEP      L**3/T
     ------------------                 ------------------------

           IN:                                      IN:
           ---                                      ---
             STORAGE =   299526624.0000               STORAGE =      742187.6250
       CONSTANT HEAD =           0.0000         CONSTANT HEAD =           0.0000
       RIVER LEAKAGE =  1214453632.0000         RIVER LEAKAGE =      447795.1250
            RECHARGE =     7277828.0000              RECHARGE =        3885.9912

            TOTAL IN =  1521258112.0000              TOTAL IN =     1193868.7500

          OUT:                                     OUT:
          ----                                     ----
             STORAGE =  1490515200.0000               STORAGE =      997278.0625
       CONSTANT HEAD =           0.0000         CONSTANT HEAD =           0.0000
       RIVER LEAKAGE =    31210986.0000         RIVER LEAKAGE =      196471.8750
            RECHARGE =           0.0000              RECHARGE =           0.0000

           TOTAL OUT =  1521726208.0000             TOTAL OUT =     1193750.0000

            IN - OUT =     -468096.0000              IN - OUT =         118.7500

 PERCENT DISCREPANCY =          -0.03     PERCENT DISCREPANCY =           0.01






         TIME SUMMARY AT END OF TIME STEP  360 IN STRESS PERIOD    1
                    SECONDS     MINUTES      HOURS       DAYS        YEARS
                    -----------------------------------------------------------
   TIME STEP LENGTH  86400.      1440.0      24.000      1.0000     2.73785E-03
 STRESS PERIOD TIME 3.11040E+07 5.18400E+05  8640.0      360.00     0.98563    
         TOTAL TIME 3.11040E+07 5.18400E+05  8640.0      360.00     0.98563    
1
 
 SOLVING FOR HEAD 
                                                   Max.-Head-Change                        Max.-Flux-Residual
  Residual-Control   Outer-Iter.   Inner-Iter.     Column Row Layer    Max.-Head-Change    Column Row Layer    Max.-Flux-Residual            L2-New               L2-Old           Solver-Max-Delh
          0                 1           2            29  111     1       0.1816607406E+02      34   98    1       0.5491638928E+05      0.1687657324E+06      0.4780859177E+02      0.1816607406E+02
          1                 1           0            29  111     1       0.1271625163E+02      29  111    1      -0.2207955838E+07      0.2208020260E+07      0.1687657324E+06      0.1816607406E+02
          2                 1           0            29  111     1       0.8901375989E+01      29  111    1      -0.1543190585E+07      0.1543678112E+07      0.2208020260E+07      0.1816607406E+02
          3                 1           0            29  111     1       0.6230963086E+01      29  111    1      -0.1077862346E+07      0.1080663297E+07      0.1543678112E+07      0.1816607406E+02
          4                 1           0            29  111     1       0.4361674086E+01      29  111    1      -0.7521325835E+06      0.7594303897E+06      0.1080663297E+07      0.1816607406E+02
          5                 1           0            29  111     1       0.3053171808E+01      29  111    1      -0.5241217527E+06      0.5386181360E+06      0.7594303897E+06      0.1816607406E+02
          6                 1           0            29  111     1       0.2137220229E+01      29  111    1      -0.3645141736E+06      0.3895799735E+06      0.5386181360E+06      0.1816607406E+02
          7                 1           0            29  111     1       0.1496054135E+01      29  111    1      -0.2527888699E+06      0.2923422264E+06      0.3895799735E+06      0.1816607406E+02
          8                 1           0            29  111     1       0.1047237877E+01      29  111    1      -0.1745811587E+06      0.2323926402E+06      0.2923422264E+06      0.1816607406E+02
          9                 1           0            29  111     1       0.7330665012E+00      29  111    1      -0.1198357617E+06      0.1982815976E+06      0.2323926402E+06      0.1816607406E+02
                                                   Max.-Head-Change                        Max.-Flux-Residual
  Residual-Control   Outer-Iter.   Inner-Iter.     Column Row Layer    Max.-Head-Change    Column Row Layer    Max.-Flux-Residual            L2-New               L2-Old           Solver-Max-Delh
          0                 2           2            29  111     1      -0.6348188120E+00      29  111    1      -0.8151398442E+05      0.1806199671E+06      0.1982815976E+06     -0.6348188120E+00
          0                 3           2            26   78     1       0.4191272758E-01      34   98    1      -0.5247875238E+04      0.1662411127E+05      0.1806199671E+06      0.4191272758E-01
          0                 4           2            26   78     1       0.4189804333E-01      34   98    1      -0.2623936620E+03      0.8312390402E+03      0.1662411127E+05      0.4189804333E-01

    ------------------------------------------------
       NWT REQUIRED            4 OUTER ITERATIONS 
       AND A TOTAL OF          8 INNER ITERATIONS.
    ------------------------------------------------

 OUTPUT CONTROL FOR STRESS PERIOD    1   TIME STEP  361
    SAVE HEAD FOR ALL LAYERS
    SAVE DRAWDOWN FOR ALL LAYERS
    SAVE BUDGET
    PRINT BUDGET
 UBDSV1 SAVING "         STORAGE" ON UNIT   9 AT TIME STEP361, STRESS PERIOD   1
 UBDSV2 SAVING "   CONSTANT HEAD" ON UNIT   9 AT TIME STEP361, STRESS PERIOD   1
 UBDSV1 SAVING "FLOW RIGHT FACE " ON UNIT   9 AT TIME STEP361, STRESS PERIOD   1
 UBDSV1 SAVING "FLOW FRONT FACE " ON UNIT   9 AT TIME STEP361, STRESS PERIOD   1
 UBDSV4 SAVING "   RIVER LEAKAGE" ON UNIT   9 AT TIME STEP361, STRESS PERIOD   1
 UBDSV3 SAVING "        RECHARGE" ON UNIT   9 AT TIME STEP361, STRESS PERIOD   1

 HEAD WILL BE SAVED ON UNIT   37 AT END OF TIME STEP  361, STRESS PERIOD    1

 DRAWDOWN WILL BE SAVED ON UNIT   38 AT END OF TIME STEP  361, STRESS PERIOD    1
1
  VOLUMETRIC BUDGET FOR ENTIRE MODEL AT END OF TIME STEP  361, STRESS PERIOD   1
  ------------------------------------------------------------------------------

     CUMULATIVE VOLUMES      L**3       RATES FOR THIS TIME STEP      L**3/T
     ------------------                 ------------------------

           IN:                                      IN:
           ---                                      ---
             STORAGE =   300257280.0000               STORAGE =      730666.9375
       CONSTANT HEAD =           0.0000         CONSTANT HEAD =           0.0000
       RIVER LEAKAGE =  1215170304.0000         RIVER LEAKAGE =      716634.8125
            RECHARGE =     7282375.0000              RECHARGE =        4547.0488

            TOTAL IN =  1522710016.0000              TOTAL IN =     1451848.7500

          OUT:                                     OUT:
          ----                                     ----
             STORAGE =  1491772544.0000               STORAGE =     1257361.0000
       CONSTANT HEAD =           0.0000         CONSTANT HEAD =           0.0000
       RIVER LEAKAGE =    31405816.0000         RIVER LEAKAGE =      194830.3281
            RECHARGE =           0.0000              RECHARGE =           0.0000

           TOTAL OUT =  1523178368.0000             TOTAL OUT =     1452191.3750

            IN - OUT =     -468352.0000              IN - OUT =        -342.6250

 PERCENT DISCREPANCY =          -0.03     PERCENT DISCREPANCY =          -0.02






         TIME SUMMARY AT END OF TIME STEP  361 IN STRESS PERIOD    1
                    SECONDS     MINUTES      HOURS       DAYS        YEARS
                    -----------------------------------------------------------
   TIME STEP LENGTH  86400.      1440.0      24.000      1.0000     2.73785E-03
 STRESS PERIOD TIME 3.11904E+07 5.19840E+05  8664.0      361.00     0.98836    
         TOTAL TIME 3.11904E+07 5.19840E+05  8664.0      361.00     0.98836    
1
 
 SOLVING FOR HEAD 
                                                   Max.-Head-Change                        Max.-Flux-Residual
  Residual-Control   Outer-Iter.   Inner-Iter.     Column Row Layer    Max.-Head-Change    Column Row Layer    Max.-Flux-Residual            L2-New               L2-Old           Solver-Max-Delh
          0                 1           2            54   44     1      -0.2399763100E+00      34   98    1      -0.6144447476E+05      0.1219859898E+06      0.4241879097E+02     -0.2399763100E+00
          0                 2           2            26   78     1       0.4184569547E-01      34   98    1       0.6144456804E+04      0.1219862752E+05      0.1219859898E+06      0.4184569547E-01
          0                 3           2            26   78     1       0.4183104206E-01      34   98    1       0.3072227533E+03      0.6099907020E+03      0.1219862752E+05      0.4183104206E-01

    ------------------------------------------------
       NWT REQUIRED            3 OUTER ITERATIONS 
       AND A TOTAL OF          6 INNER ITERATIONS.
    ------------------------------------------------

 OUTPUT CONTROL FOR STRESS PERIOD    1   TIME STEP  362
    SAVE HEAD FOR ALL LAYERS
    SAVE DRAWDOWN FOR ALL LAYERS
    SAVE BUDGET
    PRINT BUDGET
 UBDSV1 SAVING "         STORAGE" ON UNIT   9 AT TIME STEP362, STRESS PERIOD   1
 UBDSV2 SAVING "   CONSTANT HEAD" ON UNIT   9 AT TIME STEP362, STRESS PERIOD   1
 UBDSV1 SAVING "FLOW RIGHT FACE " ON UNIT   9 AT TIME STEP362, STRESS PERIOD   1
 UBDSV1 SAVING "FLOW FRONT FACE " ON UNIT   9 AT TIME STEP362, STRESS PERIOD   1
 UBDSV4 SAVING "   RIVER LEAKAGE" ON UNIT   9 AT TIME STEP362, STRESS PERIOD   1
 UBDSV3 SAVING "        RECHARGE" ON UNIT   9 AT TIME STEP362, STRESS PERIOD   1

 HEAD WILL BE SAVED ON UNIT   37 AT END OF TIME STEP  362, STRESS PERIOD    1

 DRAWDOWN WILL BE SAVED ON UNIT   38 AT END OF TIME STEP  362, STRESS PERIOD    1
1
  VOLUMETRIC BUDGET FOR ENTIRE MODEL AT END OF TIME STEP  362, STRESS PERIOD   1
  ------------------------------------------------------------------------------

     CUMULATIVE VOLUMES      L**3       RATES FOR THIS TIME STEP      L**3/T
     ------------------                 ------------------------

           IN:                                      IN:
           ---                                      ---
             STORAGE =   300991488.0000               STORAGE =      734201.5000
       CONSTANT HEAD =           0.0000         CONSTANT HEAD =           0.0000
       RIVER LEAKAGE =  1215651584.0000         RIVER LEAKAGE =      481314.3750
            RECHARGE =     7286599.5000              RECHARGE =        4224.4053

            TOTAL IN =  1523929728.0000              TOTAL IN =     1219740.2500

          OUT:                                     OUT:
          ----                                     ----
             STORAGE =  1492796160.0000               STORAGE =     1023606.0625
       CONSTANT HEAD =           0.0000         CONSTANT HEAD =           0.0000
       RIVER LEAKAGE =    31601886.0000         RIVER LEAKAGE =      196070.3438
            RECHARGE =           0.0000              RECHARGE =           0.0000

           TOTAL OUT =  1524398080.0000             TOTAL OUT =     1219676.3750

            IN - OUT =     -468352.0000              IN - OUT =          63.8750

 PERCENT DISCREPANCY =          -0.03     PERCENT DISCREPANCY =           0.01






         TIME SUMMARY AT END OF TIME STEP  362 IN STRESS PERIOD    1
                    SECONDS     MINUTES      HOURS       DAYS        YEARS
                    -----------------------------------------------------------
   TIME STEP LENGTH  86400.      1440.0      24.000      1.0000     2.73785E-03
 STRESS PERIOD TIME 3.12768E+07 5.21280E+05  8688.0      362.00     0.99110    
         TOTAL TIME 3.12768E+07 5.21280E+05  8688.0      362.00     0.99110    
1
 
 SOLVING FOR HEAD 
                                                   Max.-Head-Change                        Max.-Flux-Residual
  Residual-Control   Outer-Iter.   Inner-Iter.     Column Row Layer    Max.-Head-Change    Column Row Layer    Max.-Flux-Residual            L2-New               L2-Old           Solver-Max-Delh
          0                 1           2            54   44     1      -0.2401234138E+00      36   86    1       0.3070315643E+05      0.1019534578E+06      0.3165956074E+02     -0.2401234138E+00
          0                 2           2            26   78     1       0.4177874626E-01      36   86    1      -0.3070345476E+04      0.1019537090E+05      0.1019534578E+06      0.4177874626E-01
          0                 3           2            26   78     1       0.4176412369E-01      36   86    1      -0.1535174180E+03      0.5098393642E+03      0.1019537090E+05      0.4176412369E-01

    ------------------------------------------------
       NWT REQUIRED            3 OUTER ITERATIONS 
       AND A TOTAL OF          6 INNER ITERATIONS.
    ------------------------------------------------

 OUTPUT CONTROL FOR STRESS PERIOD    1   TIME STEP  363
    SAVE HEAD FOR ALL LAYERS
    SAVE DRAWDOWN FOR ALL LAYERS
    SAVE BUDGET
    PRINT BUDGET
 UBDSV1 SAVING "         STORAGE" ON UNIT   9 AT TIME STEP363, STRESS PERIOD   1
 UBDSV2 SAVING "   CONSTANT HEAD" ON UNIT   9 AT TIME STEP363, STRESS PERIOD   1
 UBDSV1 SAVING "FLOW RIGHT FACE " ON UNIT   9 AT TIME STEP363, STRESS PERIOD   1
 UBDSV1 SAVING "FLOW FRONT FACE " ON UNIT   9 AT TIME STEP363, STRESS PERIOD   1
 UBDSV4 SAVING "   RIVER LEAKAGE" ON UNIT   9 AT TIME STEP363, STRESS PERIOD   1
 UBDSV3 SAVING "        RECHARGE" ON UNIT   9 AT TIME STEP363, STRESS PERIOD   1

 HEAD WILL BE SAVED ON UNIT   37 AT END OF TIME STEP  363, STRESS PERIOD    1

 DRAWDOWN WILL BE SAVED ON UNIT   38 AT END OF TIME STEP  363, STRESS PERIOD    1
1
  VOLUMETRIC BUDGET FOR ENTIRE MODEL AT END OF TIME STEP  363, STRESS PERIOD   1
  ------------------------------------------------------------------------------

     CUMULATIVE VOLUMES      L**3       RATES FOR THIS TIME STEP      L**3/T
     ------------------                 ------------------------

           IN:                                      IN:
           ---                                      ---
             STORAGE =   301729216.0000               STORAGE =      737735.3750
       CONSTANT HEAD =           0.0000         CONSTANT HEAD =           0.0000
       RIVER LEAKAGE =  1216074368.0000         RIVER LEAKAGE =      422738.1875
            RECHARGE =     7289879.5000              RECHARGE =        3280.0786

            TOTAL IN =  1525093376.0000              TOTAL IN =     1163753.6250

          OUT:                                     OUT:
          ----                                     ----
             STORAGE =  1493763712.0000               STORAGE =      967552.5000
       CONSTANT HEAD =           0.0000         CONSTANT HEAD =           0.0000
       RIVER LEAKAGE =    31798030.0000         RIVER LEAKAGE =      196143.7500
            RECHARGE =           0.0000              RECHARGE =           0.0000

           TOTAL OUT =  1525561728.0000             TOTAL OUT =     1163696.2500

            IN - OUT =     -468352.0000              IN - OUT =          57.3750

 PERCENT DISCREPANCY =          -0.03     PERCENT DISCREPANCY =           0.00






         TIME SUMMARY AT END OF TIME STEP  363 IN STRESS PERIOD    1
                    SECONDS     MINUTES      HOURS       DAYS        YEARS
                    -----------------------------------------------------------
   TIME STEP LENGTH  86400.      1440.0      24.000      1.0000     2.73785E-03
 STRESS PERIOD TIME 3.13632E+07 5.22720E+05  8712.0      363.00     0.99384    
         TOTAL TIME 3.13632E+07 5.22720E+05  8712.0      363.00     0.99384    
1
 
 SOLVING FOR HEAD 
                                                   Max.-Head-Change                        Max.-Flux-Residual
  Residual-Control   Outer-Iter.   Inner-Iter.     Column Row Layer    Max.-Head-Change    Column Row Layer    Max.-Flux-Residual            L2-New               L2-Old           Solver-Max-Delh
          0                 1           2            54   44     1      -0.2398481740E+00      36   86    1       0.3067723448E+05      0.9422541201E+05      0.2686720960E+02     -0.2398481740E+00
          0                 2           2            26   78     1       0.4171240485E-01      36   86    1      -0.3067753299E+04      0.9422565739E+04      0.9422541201E+05      0.4171240485E-01

    ------------------------------------------------
       NWT REQUIRED            2 OUTER ITERATIONS 
       AND A TOTAL OF          4 INNER ITERATIONS.
    ------------------------------------------------

 OUTPUT CONTROL FOR STRESS PERIOD    1   TIME STEP  364
    SAVE HEAD FOR ALL LAYERS
    SAVE DRAWDOWN FOR ALL LAYERS
    SAVE BUDGET
    PRINT BUDGET
 UBDSV1 SAVING "         STORAGE" ON UNIT   9 AT TIME STEP364, STRESS PERIOD   1
 UBDSV2 SAVING "   CONSTANT HEAD" ON UNIT   9 AT TIME STEP364, STRESS PERIOD   1
 UBDSV1 SAVING "FLOW RIGHT FACE " ON UNIT   9 AT TIME STEP364, STRESS PERIOD   1
 UBDSV1 SAVING "FLOW FRONT FACE " ON UNIT   9 AT TIME STEP364, STRESS PERIOD   1
 UBDSV4 SAVING "   RIVER LEAKAGE" ON UNIT   9 AT TIME STEP364, STRESS PERIOD   1
 UBDSV3 SAVING "        RECHARGE" ON UNIT   9 AT TIME STEP364, STRESS PERIOD   1

 HEAD WILL BE SAVED ON UNIT   37 AT END OF TIME STEP  364, STRESS PERIOD    1

 DRAWDOWN WILL BE SAVED ON UNIT   38 AT END OF TIME STEP  364, STRESS PERIOD    1
1
  VOLUMETRIC BUDGET FOR ENTIRE MODEL AT END OF TIME STEP  364, STRESS PERIOD   1
  ------------------------------------------------------------------------------

     CUMULATIVE VOLUMES      L**3       RATES FOR THIS TIME STEP      L**3/T
     ------------------                 ------------------------

           IN:                                      IN:
           ---                                      ---
             STORAGE =   302470368.0000               STORAGE =      741159.2500
       CONSTANT HEAD =           0.0000         CONSTANT HEAD =           0.0000
       RIVER LEAKAGE =  1216491776.0000         RIVER LEAKAGE =      417417.1562
            RECHARGE =     7292329.0000              RECHARGE =        2449.2839

            TOTAL IN =  1526254464.0000              TOTAL IN =     1161025.7500

          OUT:                                     OUT:
          ----                                     ----
             STORAGE =  1494729856.0000               STORAGE =      966191.6250
       CONSTANT HEAD =           0.0000         CONSTANT HEAD =           0.0000
       RIVER LEAKAGE =    31993704.0000         RIVER LEAKAGE =      195673.0000
            RECHARGE =           0.0000              RECHARGE =           0.0000

           TOTAL OUT =  1526723584.0000             TOTAL OUT =     1161864.6250

            IN - OUT =     -469120.0000              IN - OUT =        -838.8750

 PERCENT DISCREPANCY =          -0.03     PERCENT DISCREPANCY =          -0.07






         TIME SUMMARY AT END OF TIME STEP  364 IN STRESS PERIOD    1
                    SECONDS     MINUTES      HOURS       DAYS        YEARS
                    -----------------------------------------------------------
   TIME STEP LENGTH  86400.      1440.0      24.000      1.0000     2.73785E-03
 STRESS PERIOD TIME 3.14496E+07 5.24160E+05  8736.0      364.00     0.99658    
         TOTAL TIME 3.14496E+07 5.24160E+05  8736.0      364.00     0.99658    
1
 
 SOLVING FOR HEAD 
                                                   Max.-Head-Change                        Max.-Flux-Residual
  Residual-Control   Outer-Iter.   Inner-Iter.     Column Row Layer    Max.-Head-Change    Column Row Layer    Max.-Flux-Residual            L2-New               L2-Old           Solver-Max-Delh
          0                 1           2            54   44     1      -0.2392662653E+00      36   86    1       0.3065112946E+05      0.9573281950E+05      0.4712047127E+03     -0.2392662653E+00
          0                 2           2            26   78     1       0.4166077684E-01      36   86    1      -0.3065142989E+04      0.9573306630E+04      0.9573281950E+05      0.4166077684E-01

    ------------------------------------------------
       NWT REQUIRED            2 OUTER ITERATIONS 
       AND A TOTAL OF          4 INNER ITERATIONS.
    ------------------------------------------------

 OUTPUT CONTROL FOR STRESS PERIOD    1   TIME STEP  365
    SAVE HEAD FOR ALL LAYERS
    SAVE DRAWDOWN FOR ALL LAYERS
    SAVE BUDGET
    PRINT BUDGET
 UBDSV1 SAVING "         STORAGE" ON UNIT   9 AT TIME STEP365, STRESS PERIOD   1
 UBDSV2 SAVING "   CONSTANT HEAD" ON UNIT   9 AT TIME STEP365, STRESS PERIOD   1
 UBDSV1 SAVING "FLOW RIGHT FACE " ON UNIT   9 AT TIME STEP365, STRESS PERIOD   1
 UBDSV1 SAVING "FLOW FRONT FACE " ON UNIT   9 AT TIME STEP365, STRESS PERIOD   1
 UBDSV4 SAVING "   RIVER LEAKAGE" ON UNIT   9 AT TIME STEP365, STRESS PERIOD   1
 UBDSV3 SAVING "        RECHARGE" ON UNIT   9 AT TIME STEP365, STRESS PERIOD   1

 HEAD WILL BE SAVED ON UNIT   37 AT END OF TIME STEP  365, STRESS PERIOD    1

 DRAWDOWN WILL BE SAVED ON UNIT   38 AT END OF TIME STEP  365, STRESS PERIOD    1
1
  VOLUMETRIC BUDGET FOR ENTIRE MODEL AT END OF TIME STEP  365, STRESS PERIOD   1
  ------------------------------------------------------------------------------

     CUMULATIVE VOLUMES      L**3       RATES FOR THIS TIME STEP      L**3/T
     ------------------                 ------------------------

           IN:                                      IN:
           ---                                      ---
             STORAGE =   303213504.0000               STORAGE =      743134.5000
       CONSTANT HEAD =           0.0000         CONSTANT HEAD =           0.0000
       RIVER LEAKAGE =  1216890752.0000         RIVER LEAKAGE =      398933.2188
            RECHARGE =     7294120.0000              RECHARGE =        1790.7972

            TOTAL IN =  1527398400.0000              TOTAL IN =     1143858.5000

          OUT:                                     OUT:
          ----                                     ----
             STORAGE =  1495678592.0000               STORAGE =      948730.1250
       CONSTANT HEAD =           0.0000         CONSTANT HEAD =           0.0000
       RIVER LEAKAGE =    32189010.0000         RIVER LEAKAGE =      195305.8438
            RECHARGE =           0.0000              RECHARGE =           0.0000

           TOTAL OUT =  1527867648.0000             TOTAL OUT =     1144036.0000

            IN - OUT =     -469248.0000              IN - OUT =        -177.5000

 PERCENT DISCREPANCY =          -0.03     PERCENT DISCREPANCY =          -0.02






         TIME SUMMARY AT END OF TIME STEP  365 IN STRESS PERIOD    1
                    SECONDS     MINUTES      HOURS       DAYS        YEARS
                    -----------------------------------------------------------
   TIME STEP LENGTH  86400.      1440.0      24.000      1.0000     2.73785E-03
 STRESS PERIOD TIME 3.15360E+07 5.25600E+05  8760.0      365.00     0.99932    
         TOTAL TIME 3.15360E+07 5.25600E+05  8760.0      365.00     0.99932    
1

 Run end date and time (yyyy/mm/dd hh:mm:ss): 2022/03/17 23:25:50
 Elapsed run time: 21.227 Seconds

